 ****** HSPICE -- O-2018.09-2 linux64 (Oct 18 2018) ******                      
  Copyright (c) 1986 - 2025 by Synopsys, Inc. All Rights Reserved.              
  This software and the associated documentation are proprietary
  to Synopsys, Inc. This software may only be used in accordance
  with the terms and conditions of a written license agreement with
  Synopsys, Inc. All other use, reproduction, or distribution of
  this software is strictly prohibited.
  Input File: deck.cir                                                          
  Command line options: /proj/cad/synopsys/synopsys_2018/hspice_vO-2018.09-2/hspice/linux64/hspice deck.cir -o deck -SIS-cchar  

  **info**  the obsolete option acct is ignored
  **info**  the obsolete option nopage is ignored
 **info** *pvaI* current limit stacksize=8388608, set new limit stacksize=62914560

 **info** *pvaI* Module (mosvarcap): 2 unexpanded port, 0 init, 85 behav, 5 contrib, 53/76 expr(s)

 **info** *pvaI*        No DIS, 0/0 afCount, 0 MT, dlg, IO(0/0/0/0)

 **info** *pvaI*        0 gmdIsThreadSafe 

 **info** *pvaI*        0 const-G and 0 const-C, No switchBranch, 22 bypassOpt, 0 bus2scalar, 0 vwb

 **info** *pvaI*        set_va_exp = 80 [80.0, 704.0] set by default

 **warning** *pvaW*        variable 'fs_init' initialized but not used in RHS, deleted (/proj/cad/library/mosis/GF65_LPe/cmos10lpe_CDS_oa_dl064_11_20160415/models/YI-SM00030/Hspice/models/./ncap.va:83)

 **warning** *pvaW*                   To relax this rule, use 'setenv PVA_KEEP_VARS 1' to keep variables for probing.

 **warning** *pvaW*        variable 'fp_init' initialized but not used in RHS, deleted (/proj/cad/library/mosis/GF65_LPe/cmos10lpe_CDS_oa_dl064_11_20160415/models/YI-SM00030/Hspice/models/./ncap.va:159)

 **warning** *pvaW*        variable 'ilast' initialized but not used in RHS, deleted (/proj/cad/library/mosis/GF65_LPe/cmos10lpe_CDS_oa_dl064_11_20160415/models/YI-SM00030/Hspice/models/./ncap.va:149)

 **warning** *pvaW*        variable 'jlast' initialized but not used in RHS, deleted (/proj/cad/library/mosis/GF65_LPe/cmos10lpe_CDS_oa_dl064_11_20160415/models/YI-SM00030/Hspice/models/./ncap.va:204)

 **info** *pvaI*        generated 3 flow node(s) during compilation.

 **info** *pvaI* Module (dgmosvarcap): 2 unexpanded port, 0 init, 84 behav, 4 contrib, 53/76 expr(s)

 **info** *pvaI*        No DIS, 0/0 afCount, 0 MT, dlg, IO(0/0/0/0)

 **info** *pvaI*        0 gmdIsThreadSafe 

 **info** *pvaI*        0 const-G and 0 const-C, No switchBranch, 22 bypassOpt, 0 bus2scalar, 0 vwb

 **info** *pvaI*        set_va_exp = 80 [80.0, 704.0] set by default

 **warning** *pvaW*        variable 'fs_init' initialized but not used in RHS, deleted (/proj/cad/library/mosis/GF65_LPe/cmos10lpe_CDS_oa_dl064_11_20160415/models/YI-SM00030/Hspice/models/./dgncap.va:83)

 **warning** *pvaW*        variable 'fp_init' initialized but not used in RHS, deleted (/proj/cad/library/mosis/GF65_LPe/cmos10lpe_CDS_oa_dl064_11_20160415/models/YI-SM00030/Hspice/models/./dgncap.va:159)

 **warning** *pvaW*        variable 'ilast' initialized but not used in RHS, deleted (/proj/cad/library/mosis/GF65_LPe/cmos10lpe_CDS_oa_dl064_11_20160415/models/YI-SM00030/Hspice/models/./dgncap.va:149)

 **warning** *pvaW*        variable 'jlast' initialized but not used in RHS, deleted (/proj/cad/library/mosis/GF65_LPe/cmos10lpe_CDS_oa_dl064_11_20160415/models/YI-SM00030/Hspice/models/./dgncap.va:204)

 **warning** *pvaW*        variable 'leak' initialized but not used in RHS, deleted (/proj/cad/library/mosis/GF65_LPe/cmos10lpe_CDS_oa_dl064_11_20160415/models/YI-SM00030/Hspice/models/./dgncap.va:74)

 **info** *pvaI*        generated 3 flow node(s) during compilation.

 **info** *pvaI* Module (veripcap): 2 unexpanded port, 0 init, 86 behav, 5 contrib, 53/77 expr(s)

 **info** *pvaI*        No DIS, 0/0 afCount, 0 MT, dlg, IO(0/0/0/0)

 **info** *pvaI*        0 gmdIsThreadSafe 

 **info** *pvaI*        0 const-G and 0 const-C, No switchBranch, 22 bypassOpt, 0 bus2scalar, 0 vwb

 **info** *pvaI*        set_va_exp = 80 [80.0, 704.0] set by default

 **warning** *pvaW*        variable 'fs_init' initialized but not used in RHS, deleted (/proj/cad/library/mosis/GF65_LPe/cmos10lpe_CDS_oa_dl064_11_20160415/models/YI-SM00030/Hspice/models/./pcap.va:87)

 **warning** *pvaW*        variable 'fp_init' initialized but not used in RHS, deleted (/proj/cad/library/mosis/GF65_LPe/cmos10lpe_CDS_oa_dl064_11_20160415/models/YI-SM00030/Hspice/models/./pcap.va:163)

 **warning** *pvaW*        variable 'ilast' initialized but not used in RHS, deleted (/proj/cad/library/mosis/GF65_LPe/cmos10lpe_CDS_oa_dl064_11_20160415/models/YI-SM00030/Hspice/models/./pcap.va:153)

 **warning** *pvaW*        variable 'jlast' initialized but not used in RHS, deleted (/proj/cad/library/mosis/GF65_LPe/cmos10lpe_CDS_oa_dl064_11_20160415/models/YI-SM00030/Hspice/models/./pcap.va:208)

 **info** *pvaI*        generated 3 flow node(s) during compilation.

 **info** *pvaI* Module (havarcap): 2 unexpanded port, 0 init, 41 behav, 1 contrib, 28/38 expr(s)

 **info** *pvaI*        Has DIS(DT), 0/0 afCount, 0 MT, dlg, IO(0/0/1/0)

 **info** *pvaI*        0 gmdIsThreadSafe (DT)

 **info** *pvaI*        1 const-G and 0 const-C, No switchBranch, 22 bypassOpt, 0 bus2scalar, 0 vwb

 **info** *pvaI*        set_va_exp = 80 [80.0, 704.0] set by default

 **info** *pvaI*        generated 0 flow node(s) during compilation.

 **info** *pvaI* Module (It2_monitor): 2 unexpanded port, 0 init, 5 behav, 1 contrib, 22/1 expr(s)

 **info** *pvaI*        Has DIS(SB), 0/0 afCount, 0 MT, dlg, IO(0/1/1/1)

 **info** *pvaI*        0 gmdIsThreadSafe (SB)

 **info** *pvaI*        0 const-G and 0 const-C, Has switchBranch, 22 bypassOpt, 0 bus2scalar, 0 vwb

 **info** *pvaI*        set_va_exp = 80 [80.0, 704.0] set by default

 **info** *pvaI*        generated 0 flow node(s) during compilation.

 **info** *pvaI* Module (single_rcline): 3 unexpanded port, 0 init, 1473 behav, 5 contrib, 47/1727 expr(s)

 **info** *pvaI* p.89 (LRM 2.2) parameter 'th' used inside analog function (/proj/cad/library/mosis/GF65_LPe/cmos10lpe_CDS_oa_dl064_11_20160415/models/YI-SM00030/Hspice/models/single_rcline.va:1044)

 **info** *pvaI*        Has DIS(DT ST), 3/11 afCount, 0 MT, dlg, IO(0/0/1/0)

 **info** *pvaI*        0 gmdIsThreadSafe (DT ST)

 **info** *pvaI*        3 const-G and 0 const-C, No switchBranch, 22 bypassOpt, 0 bus2scalar, 0 vwb

 **info** *pvaI*        set_va_exp = 80 [80.0, 704.0] set by default

 **info** *pvaI*        generated 0 flow node(s) during compilation.

 **info** *pvaI* Module (single_cpw): 3 unexpanded port, 0 init, 1795 behav, 40 contrib, 72/2265 expr(s)

 **info** *pvaI* p.89 (LRM 2.2) parameter 'th' used inside analog function (/proj/cad/library/mosis/GF65_LPe/cmos10lpe_CDS_oa_dl064_11_20160415/models/YI-SM00030/Hspice/models/single_cpw.va:1130)

 **info** *pvaI*        Has DIS(DT IT ST), 17/40 afCount, 0 MT, dlg, IO(0/0/1/0)

 **info** *pvaI*        0 gmdIsThreadSafe (DT IT ST)

 **info** *pvaI*        0 const-G and 0 const-C, No switchBranch, 0 bypassOpt, 0 bus2scalar, 0 vwb

 **info** *pvaI*        set_va_exp = 80 [80.0, 704.0] set by default

 **warning** *pvaW*        variable 'Coxo_None' declared but not used in RHS, deleted (/proj/cad/library/mosis/GF65_LPe/cmos10lpe_CDS_oa_dl064_11_20160415/models/YI-SM00030/Hspice/models/single_cpw.va:178)

 **info** *pvaI*        generated 3 flow node(s) during compilation.

 **info** *pvaI* Module (coupled_rcline): 5 unexpanded port, 0 init, 1778 behav, 13 contrib, 65/2017 expr(s)

 **info** *pvaI* p.89 (LRM 2.2) parameter 'th' used inside analog function (/proj/cad/library/mosis/GF65_LPe/cmos10lpe_CDS_oa_dl064_11_20160415/models/YI-SM00030/Hspice/models/coupled_rcline.va:1094)

 **info** *pvaI*        Has DIS(ST), 5/10 afCount, 0 MT, dlg, IO(0/0/1/0)

 **info** *pvaI*        0 gmdIsThreadSafe (ST)

 **info** *pvaI*        0 const-G and 0 const-C, No switchBranch, 22 bypassOpt, 0 bus2scalar, 0 vwb

 **info** *pvaI*        set_va_exp = 80 [80.0, 704.0] set by default

 **info** *pvaI*        generated 0 flow node(s) during compilation.

 **info** *pvaI* Module (coupled_cpw): 5 unexpanded port, 0 init, 2364 behav, 90 contrib, 70/2827 expr(s)

 **info** *pvaI* p.89 (LRM 2.2) parameter 'th' used inside analog function (/proj/cad/library/mosis/GF65_LPe/cmos10lpe_CDS_oa_dl064_11_20160415/models/YI-SM00030/Hspice/models/coupled_cpw.va:1205)

 **info** *pvaI* p.89 (LRM 2.2) parameter 'd' used inside analog function (/proj/cad/library/mosis/GF65_LPe/cmos10lpe_CDS_oa_dl064_11_20160415/models/YI-SM00030/Hspice/models/coupled_cpw.va:1918)

 **info** *pvaI*        Has DIS(DT IT ST), 14/31 afCount, 0 MT, dlg, IO(0/0/1/0)

 **info** *pvaI*        0 gmdIsThreadSafe (DT IT ST)

 **info** *pvaI*        0 const-G and 0 const-C, No switchBranch, 0 bypassOpt, 0 bus2scalar, 0 vwb

 **info** *pvaI*        set_va_exp = 80 [80.0, 704.0] set by default

 **warning** *pvaW*        variable 'M0' initialized but not used in RHS, deleted (/proj/cad/library/mosis/GF65_LPe/cmos10lpe_CDS_oa_dl064_11_20160415/models/YI-SM00030/Hspice/models/coupled_cpw.va:2344)

 **info** *pvaI*        generated 6 flow node(s) during compilation.

 **info** *pvaI* #### Total 4247 line-size(s), 463/9104 expr(s), 164 contr(s), 0 init(s), 7711 behav(s), 26 port(s)

  **warning** (/proj/cad/library/mosis/GF65_LPe/cmos10lpe_CDS_oa_dl064_11_20160415/models/YI-SM00030/Hspice/models/./nfet.inc:222) Model nfet device geometries will not be checked against the limits set by lmin, lmax, wmin and wmax. To enable this check, add a period(.) to the model name(i.e. enable model selector).
  **warning** (/proj/cad/library/mosis/GF65_LPe/cmos10lpe_CDS_oa_dl064_11_20160415/models/YI-SM00030/Hspice/models/./pfet.inc:222) Model pfet device geometries will not be checked against the limits set by lmin, lmax, wmin and wmax. To enable this check, add a period(.) to the model name(i.e. enable model selector).
  **info**  the obsolete option acct is ignored
  **info**  the obsolete option nopage is ignored

 **info** IF-.ELSE condition won’t be re-calculated for each data/parameter sweep. If .data/sweep parameter assignments are used in .if condition, please use .alter as a workaround.

 Loading pVA library deck.pvadir/pvaRTL_linux64.so...
  
      
 *****************************************************************
 ******  option summary
 ******
 runlvl  = 5         bypass  = 2.0000000  
  **info** multiple results used in passfail
 End of pVA setup    on Thu May  8 15:12:40 2025	GTM/In-use: 61.0000/49.9860 MB


 **warning** Both end of window has same sign.

 **info** extend bisection window to (1.07e-11,-3.21e-11)

 **warning** Both end of window has same sign.

 **info** extend bisection window to (3.21e-11,-5.35e-11)

 **warning** Both end of window has same sign.

 **info** extend bisection window to (7.49e-11,-9.63e-11)

 **warning** Both end of window has same sign.

 **info** extend bisection window to (1.605e-10,-1.819e-10)

 **warning** Both end of window has same sign.

 **info** extend bisection window to (3.317e-10,-3.531e-10)

 **warning** Both end of window has same sign.

 **info** extend bisection window to (6.741e-10,-6.955e-10)

 **warning** Both end of window has same sign.

 **info** extend bisection window to (1.3589e-09,-1.3803e-09)

 **warning** Both end of window has same sign.

 **info** extend bisection window to (2.7285e-09,-2.7499e-09)

 **warning** Both end of window has same sign.

 **info** extend bisection window to (5.4677e-09,-5.4891e-09)

 **warning** Both end of window has same sign.

 **info** extend bisection window to (1.09461e-08,-1.09675e-08)

 **warning** Both end of window has same sign.

 **info** extend bisection window to (2.19029e-08,-2.19243e-08)

 **warning** Both end of window has same sign.

 **info** extend bisection window to (4.38165e-08,-4.38379e-08)

 **warning** Both end of window has same sign.

 **info** extend bisection window to (8.76437e-08,-8.76651e-08)

 **warning** Both end of window has same sign.

 **info** extend bisection window to (1.75298e-07,-1.75319e-07)

 **warning** Both end of window has same sign.

 **info** extend bisection window to (3.50607e-07,-3.50628e-07)

 **warning** Both end of window has same sign.

 **info** extend bisection window to (7.01224e-07,-7.01246e-07)

 **warning** Both end of window has same sign.

 **info** extend bisection window to (1.40246e-06,-1.40248e-06)

 **warning** Both end of window has same sign.

 **info** extend bisection window to (2.80493e-06,-2.80495e-06)

 **warning** Both end of window has same sign.

 **info** extend bisection window to (5.60987e-06,-5.60989e-06)

 **warning** Both end of window has same sign.

 **info** extend bisection window to (1.12198e-05,-1.12198e-05)

 **warning** Both end of window has same sign.

 setup =    failed       
 sis_passlist =    failed
 sis_fallback1_opt =    failed
  **info** multiple results used in passfail
 **warning** Both end of window has same sign.

 **info** extend bisection window to (7.58353e-12,-3.69164e-11)

 **warning** Both end of window has same sign.

 **info** extend bisection window to (2.98335e-11,-5.91663e-11)

 **warning** Both end of window has same sign.

 **info** extend bisection window to (7.43334e-11,-1.03666e-10)

 **warning** Both end of window has same sign.

 **info** extend bisection window to (1.63333e-10,-1.92666e-10)

 **warning** Both end of window has same sign.

 **info** extend bisection window to (3.41333e-10,-3.70666e-10)

 **warning** Both end of window has same sign.

 **info** extend bisection window to (6.97332e-10,-7.26665e-10)

 **warning** Both end of window has same sign.

 **info** extend bisection window to (1.40933e-09,-1.43866e-09)

 **warning** Both end of window has same sign.

 **info** extend bisection window to (2.83333e-09,-2.86266e-09)

 **warning** Both end of window has same sign.

 **info** extend bisection window to (5.68132e-09,-5.71065e-09)

 **warning** Both end of window has same sign.

 **info** extend bisection window to (1.13773e-08,-1.14066e-08)

 **warning** Both end of window has same sign.

 **info** extend bisection window to (2.27693e-08,-2.27986e-08)

 **warning** Both end of window has same sign.

 **info** extend bisection window to (4.55532e-08,-4.55826e-08)

 **warning** Both end of window has same sign.

 **info** extend bisection window to (9.11211e-08,-9.11504e-08)

 **warning** Both end of window has same sign.

 **info** extend bisection window to (1.82257e-07,-1.82286e-07)

 **warning** Both end of window has same sign.

 **info** extend bisection window to (3.64528e-07,-3.64558e-07)

 **warning** Both end of window has same sign.

 **info** extend bisection window to (7.29072e-07,-7.29101e-07)

 **warning** Both end of window has same sign.

 **info** extend bisection window to (1.45816e-06,-1.45819e-06)

 **warning** Both end of window has same sign.

 **info** extend bisection window to (2.91633e-06,-2.91636e-06)

 **warning** Both end of window has same sign.

 **info** extend bisection window to (5.83268e-06,-5.8327e-06)

 **warning** Both end of window has same sign.

 **info** extend bisection window to (1.16654e-05,-1.16654e-05)

 **warning** Both end of window has same sign.

 setup =    failed       
 sis_passlist =    failed
 sis_fallback1_opt =    failed
  **info** multiple results used in passfail
 **warning** Both end of window has same sign.

 **info** extend bisection window to (-3.35595e-12,-5.38228e-11)

 **warning** Both end of window has same sign.

 **info** extend bisection window to (2.18775e-11,-7.90563e-11)

 **warning** Both end of window has same sign.

 **info** extend bisection window to (7.23444e-11,-1.29523e-10)

 **warning** Both end of window has same sign.

 **info** extend bisection window to (1.73278e-10,-2.30457e-10)

 **warning** Both end of window has same sign.

 **info** extend bisection window to (3.75146e-10,-4.32324e-10)

 **warning** Both end of window has same sign.

 **info** extend bisection window to (7.78881e-10,-8.3606e-10)

 **warning** Both end of window has same sign.

 **info** extend bisection window to (1.58635e-09,-1.64353e-09)

 **warning** Both end of window has same sign.

 **info** extend bisection window to (3.20129e-09,-3.25847e-09)

 **warning** Both end of window has same sign.

 **info** extend bisection window to (6.43117e-09,-6.48835e-09)

 **warning** Both end of window has same sign.

 **info** extend bisection window to (1.28909e-08,-1.29481e-08)

 **warning** Both end of window has same sign.

 **info** extend bisection window to (2.58105e-08,-2.58676e-08)

 **warning** Both end of window has same sign.

 **info** extend bisection window to (5.16495e-08,-5.17067e-08)

 **warning** Both end of window has same sign.

 **info** extend bisection window to (1.03328e-07,-1.03385e-07)

 **warning** Both end of window has same sign.

 **info** extend bisection window to (2.06684e-07,-2.06741e-07)

 **warning** Both end of window has same sign.

 **info** extend bisection window to (4.13396e-07,-4.13453e-07)

 **warning** Both end of window has same sign.

 **info** extend bisection window to (8.26821e-07,-8.26878e-07)

 **warning** Both end of window has same sign.

 **info** extend bisection window to (1.65367e-06,-1.65373e-06)

 **warning** Both end of window has same sign.

 **info** extend bisection window to (3.30737e-06,-3.30743e-06)

 **warning** Both end of window has same sign.

 **info** extend bisection window to (6.61477e-06,-6.61482e-06)

 **warning** Both end of window has same sign.

 **info** extend bisection window to (1.32296e-05,-1.32296e-05)

 **warning** Both end of window has same sign.

 setup =    failed       
 sis_passlist =    failed
 sis_fallback1_opt =    failed
  **info** multiple results used in passfail
 **warning** Both end of window has same sign.

 **info** extend bisection window to (-2.42465e-11,-8.61082e-11)

 **warning** Both end of window has same sign.

 **info** extend bisection window to (6.68438e-12,-1.17039e-10)

 **warning** Both end of window has same sign.

 **info** extend bisection window to (6.85461e-11,-1.78901e-10)

 **warning** Both end of window has same sign.

 **info** extend bisection window to (1.9227e-10,-3.02624e-10)

 **warning** Both end of window has same sign.

 **info** extend bisection window to (4.39716e-10,-5.50071e-10)

 **warning** Both end of window has same sign.

 **info** extend bisection window to (9.3461e-10,-1.04496e-09)

 **warning** Both end of window has same sign.

 **info** extend bisection window to (1.9244e-09,-2.03475e-09)

 **warning** Both end of window has same sign.

 **info** extend bisection window to (3.90397e-09,-4.01433e-09)

 **warning** Both end of window has same sign.

 **info** extend bisection window to (7.86312e-09,-7.97348e-09)

 **warning** Both end of window has same sign.

 **info** extend bisection window to (1.57814e-08,-1.58918e-08)

 **warning** Both end of window has same sign.

 **info** extend bisection window to (3.1618e-08,-3.17284e-08)

 **warning** Both end of window has same sign.

 **info** extend bisection window to (6.32912e-08,-6.34016e-08)

 **warning** Both end of window has same sign.

 **info** extend bisection window to (1.26638e-07,-1.26748e-07)

 **warning** Both end of window has same sign.

 **info** extend bisection window to (2.5333e-07,-2.53441e-07)

 **warning** Both end of window has same sign.

 **info** extend bisection window to (5.06716e-07,-5.06826e-07)

 **warning** Both end of window has same sign.

 **info** extend bisection window to (1.01349e-06,-1.0136e-06)

 **warning** Both end of window has same sign.

 **info** extend bisection window to (2.02703e-06,-2.02714e-06)

 **warning** Both end of window has same sign.

 **info** extend bisection window to (4.05411e-06,-4.05422e-06)

 **warning** Both end of window has same sign.

 **info** extend bisection window to (8.10828e-06,-8.10839e-06)

 **warning** Both end of window has same sign.

 **info** extend bisection window to (1.62166e-05,-1.62167e-05)

 **warning** Both end of window has same sign.

 setup =    failed       
 sis_passlist =    failed
 sis_fallback1_opt =    failed
  **info** multiple results used in passfail
 **warning** Both end of window has same sign.

 **info** extend bisection window to (-5.67929e-11,-1.36407e-10)

 **warning** Both end of window has same sign.

 **info** extend bisection window to (-1.69857e-11,-1.76214e-10)

 **warning** Both end of window has same sign.

 **info** extend bisection window to (6.26286e-11,-2.55829e-10)

 **warning** Both end of window has same sign.

 **info** extend bisection window to (2.21857e-10,-4.15057e-10)

 **warning** Both end of window has same sign.

 **info** extend bisection window to (5.40314e-10,-7.33514e-10)

 **warning** Both end of window has same sign.

 **info** extend bisection window to (1.17723e-09,-1.37043e-09)

 **warning** Both end of window has same sign.

 **info** extend bisection window to (2.45106e-09,-2.64426e-09)

 **warning** Both end of window has same sign.

 **info** extend bisection window to (4.99871e-09,-5.19191e-09)

 **warning** Both end of window has same sign.

 **info** extend bisection window to (1.0094e-08,-1.02872e-08)

 **warning** Both end of window has same sign.

 **info** extend bisection window to (2.02847e-08,-2.04779e-08)

 **warning** Both end of window has same sign.

 **info** extend bisection window to (4.06659e-08,-4.08591e-08)

 **warning** Both end of window has same sign.

 **info** extend bisection window to (8.14284e-08,-8.16216e-08)

 **warning** Both end of window has same sign.

 **info** extend bisection window to (1.62953e-07,-1.63147e-07)

 **warning** Both end of window has same sign.

 **info** extend bisection window to (3.26004e-07,-3.26197e-07)

 **warning** Both end of window has same sign.

 **info** extend bisection window to (6.52104e-07,-6.52297e-07)

 **warning** Both end of window has same sign.

 **info** extend bisection window to (1.3043e-06,-1.3045e-06)

 **warning** Both end of window has same sign.

 **info** extend bisection window to (2.6087e-06,-2.6089e-06)

 **warning** Both end of window has same sign.

 **info** extend bisection window to (5.21751e-06,-5.2177e-06)

 **warning** Both end of window has same sign.

 **info** extend bisection window to (1.04351e-05,-1.04353e-05)

 **warning** Both end of window has same sign.

 **info** extend bisection window to (2.08703e-05,-2.08705e-05)

 **warning** Both end of window has same sign.

 setup =    failed       
 sis_passlist =    failed
 sis_fallback1_opt =    failed
  **info** multiple results used in passfail
 **warning** Both end of window has same sign.

 **info** extend bisection window to (-1.02459e-10,-2.06982e-10)

 **warning** Both end of window has same sign.

 **info** extend bisection window to (-5.01976e-11,-2.59244e-10)

 **warning** Both end of window has same sign.

 **info** extend bisection window to (5.43256e-11,-3.63767e-10)

 **warning** Both end of window has same sign.

 **info** extend bisection window to (2.63372e-10,-5.72814e-10)

 **warning** Both end of window has same sign.

 **info** extend bisection window to (6.81465e-10,-9.90907e-10)

 **warning** Both end of window has same sign.

 **info** extend bisection window to (1.51765e-09,-1.82709e-09)

 **warning** Both end of window has same sign.

 **info** extend bisection window to (3.19002e-09,-3.49946e-09)

 **warning** Both end of window has same sign.

 **info** extend bisection window to (6.53477e-09,-6.84421e-09)

 **warning** Both end of window has same sign.

 **info** extend bisection window to (1.32243e-08,-1.35337e-08)

 **warning** Both end of window has same sign.

 **info** extend bisection window to (2.66032e-08,-2.69127e-08)

 **warning** Both end of window has same sign.

 **info** extend bisection window to (5.33612e-08,-5.36706e-08)

 **warning** Both end of window has same sign.

 **info** extend bisection window to (1.06877e-07,-1.07187e-07)

 **warning** Both end of window has same sign.

 **info** extend bisection window to (2.13909e-07,-2.14218e-07)

 **warning** Both end of window has same sign.

 **info** extend bisection window to (4.27972e-07,-4.28282e-07)

 **warning** Both end of window has same sign.

 **info** extend bisection window to (8.561e-07,-8.56409e-07)

 **warning** Both end of window has same sign.

 **info** extend bisection window to (1.71235e-06,-1.71266e-06)

 **warning** Both end of window has same sign.

 **info** extend bisection window to (3.42486e-06,-3.42517e-06)

 **warning** Both end of window has same sign.

 **info** extend bisection window to (6.84988e-06,-6.85019e-06)

 **warning** Both end of window has same sign.

 **info** extend bisection window to (1.36999e-05,-1.37002e-05)

 **warning** Both end of window has same sign.

 **info** extend bisection window to (2.74e-05,-2.74003e-05)

 **warning** Both end of window has same sign.

 setup =    failed       
 sis_passlist =    failed
 sis_fallback1_opt =    failed
  **info** multiple results used in passfail
 **warning** Both end of window has same sign.

 **info** extend bisection window to (-1.6255e-10,-2.9985e-10)

 **warning** Both end of window has same sign.

 **info** extend bisection window to (-9.39e-11,-3.685e-10)

 **warning** Both end of window has same sign.

 **info** extend bisection window to (4.34e-11,-5.058e-10)

 **warning** Both end of window has same sign.

 **info** extend bisection window to (3.18e-10,-7.804e-10)

 **warning** Both end of window has same sign.

 **info** extend bisection window to (8.672e-10,-1.3296e-09)

 **warning** Both end of window has same sign.

 **info** extend bisection window to (1.9656e-09,-2.428e-09)

 **warning** Both end of window has same sign.

 **info** extend bisection window to (4.1624e-09,-4.6248e-09)

 **warning** Both end of window has same sign.

 **info** extend bisection window to (8.556e-09,-9.0184e-09)

 **warning** Both end of window has same sign.

 **info** extend bisection window to (1.73432e-08,-1.78056e-08)

 **warning** Both end of window has same sign.

 **info** extend bisection window to (3.49176e-08,-3.538e-08)

 **warning** Both end of window has same sign.

 **info** extend bisection window to (7.00664e-08,-7.05288e-08)

 **warning** Both end of window has same sign.

 **info** extend bisection window to (1.40364e-07,-1.40826e-07)

 **warning** Both end of window has same sign.

 **info** extend bisection window to (2.80959e-07,-2.81422e-07)

 **warning** Both end of window has same sign.

 **info** extend bisection window to (5.6215e-07,-5.62612e-07)

 **warning** Both end of window has same sign.

 **info** extend bisection window to (1.12453e-06,-1.12499e-06)

 **warning** Both end of window has same sign.

 **info** extend bisection window to (2.24929e-06,-2.24975e-06)

 **warning** Both end of window has same sign.

 **info** extend bisection window to (4.49882e-06,-4.49928e-06)

 **warning** Both end of window has same sign.

 **info** extend bisection window to (8.99786e-06,-8.99832e-06)

 **warning** Both end of window has same sign.

 **info** extend bisection window to (1.7996e-05,-1.79964e-05)

 **warning** Both end of window has same sign.

 **info** extend bisection window to (3.59921e-05,-3.59926e-05)

 **warning** Both end of window has same sign.

 setup =    failed       
 sis_passlist =    failed
 sis_fallback1_opt =    failed
  **info** multiple results used in passfail
 **warning** Both end of window has same sign.

 **info** extend bisection window to (1.46664e-11,-2.98335e-11)

 **warning** Both end of window has same sign.

 **info** extend bisection window to (3.69164e-11,-5.20834e-11)

 **warning** Both end of window has same sign.

 **info** extend bisection window to (8.14162e-11,-9.65833e-11)

 **warning** Both end of window has same sign.

 **info** extend bisection window to (1.70416e-10,-1.85583e-10)

 **warning** Both end of window has same sign.

 **info** extend bisection window to (3.48416e-10,-3.63583e-10)

 **warning** Both end of window has same sign.

 **info** extend bisection window to (7.04415e-10,-7.19582e-10)

 **warning** Both end of window has same sign.

 **info** extend bisection window to (1.41641e-09,-1.43158e-09)

 **warning** Both end of window has same sign.

 **info** extend bisection window to (2.84041e-09,-2.85558e-09)

 **warning** Both end of window has same sign.

 **info** extend bisection window to (5.6884e-09,-5.70357e-09)

 **warning** Both end of window has same sign.

 **info** extend bisection window to (1.13844e-08,-1.13996e-08)

 **warning** Both end of window has same sign.

 **info** extend bisection window to (2.27764e-08,-2.27915e-08)

 **warning** Both end of window has same sign.

 **info** extend bisection window to (4.55603e-08,-4.55755e-08)

 **warning** Both end of window has same sign.

 **info** extend bisection window to (9.11282e-08,-9.11434e-08)

 **warning** Both end of window has same sign.

 **info** extend bisection window to (1.82264e-07,-1.82279e-07)

 **warning** Both end of window has same sign.

 **info** extend bisection window to (3.64536e-07,-3.64551e-07)

 **warning** Both end of window has same sign.

 **info** extend bisection window to (7.29079e-07,-7.29094e-07)

 **warning** Both end of window has same sign.

 **info** extend bisection window to (1.45816e-06,-1.45818e-06)

 **warning** Both end of window has same sign.

 **info** extend bisection window to (2.91634e-06,-2.91635e-06)

 **warning** Both end of window has same sign.

 **info** extend bisection window to (5.83268e-06,-5.8327e-06)

 **warning** Both end of window has same sign.

 **info** extend bisection window to (1.16654e-05,-1.16654e-05)

 **warning** Both end of window has same sign.

 setup =    failed       
 sis_passlist =    failed
 sis_fallback1_opt =    failed
  **info** multiple results used in passfail
 **warning** Both end of window has same sign.

 **info** extend bisection window to (1.15499e-11,-3.46498e-11)

 **warning** Both end of window has same sign.

 **info** extend bisection window to (3.46498e-11,-5.77497e-11)

 **warning** Both end of window has same sign.

 **info** extend bisection window to (8.08496e-11,-1.0395e-10)

 **warning** Both end of window has same sign.

 **info** extend bisection window to (1.73249e-10,-1.96349e-10)

 **warning** Both end of window has same sign.

 **info** extend bisection window to (3.58048e-10,-3.81148e-10)

 **warning** Both end of window has same sign.

 **info** extend bisection window to (7.27647e-10,-7.50746e-10)

 **warning** Both end of window has same sign.

 **info** extend bisection window to (1.46684e-09,-1.48994e-09)

 **warning** Both end of window has same sign.

 **info** extend bisection window to (2.94524e-09,-2.96834e-09)

 **warning** Both end of window has same sign.

 **info** extend bisection window to (5.90202e-09,-5.92512e-09)

 **warning** Both end of window has same sign.

 **info** extend bisection window to (1.18156e-08,-1.18387e-08)

 **warning** Both end of window has same sign.

 **info** extend bisection window to (2.36427e-08,-2.36658e-08)

 **warning** Both end of window has same sign.

 **info** extend bisection window to (4.7297e-08,-4.73201e-08)

 **warning** Both end of window has same sign.

 **info** extend bisection window to (9.46056e-08,-9.46287e-08)

 **warning** Both end of window has same sign.

 **info** extend bisection window to (1.89223e-07,-1.89246e-07)

 **warning** Both end of window has same sign.

 **info** extend bisection window to (3.78457e-07,-3.7848e-07)

 **warning** Both end of window has same sign.

 **info** extend bisection window to (7.56926e-07,-7.56949e-07)

 **warning** Both end of window has same sign.

 **info** extend bisection window to (1.51386e-06,-1.51389e-06)

 **warning** Both end of window has same sign.

 **info** extend bisection window to (3.02774e-06,-3.02776e-06)

 **warning** Both end of window has same sign.

 **info** extend bisection window to (6.05549e-06,-6.05551e-06)

 **warning** Both end of window has same sign.

 **info** extend bisection window to (1.2111e-05,-1.2111e-05)

 **warning** Both end of window has same sign.

 setup =    failed       
 sis_passlist =    failed
 sis_fallback1_opt =    failed
  **info** multiple results used in passfail
 **warning** Both end of window has same sign.

 **info** extend bisection window to (6.1046e-13,-5.15563e-11)

 **warning** Both end of window has same sign.

 **info** extend bisection window to (2.66938e-11,-7.76397e-11)

 **warning** Both end of window has same sign.

 **info** extend bisection window to (7.88606e-11,-1.29806e-10)

 **warning** Both end of window has same sign.

 **info** extend bisection window to (1.83194e-10,-2.3414e-10)

 **warning** Both end of window has same sign.

 **info** extend bisection window to (3.91861e-10,-4.42807e-10)

 **warning** Both end of window has same sign.

 **info** extend bisection window to (8.09195e-10,-8.60141e-10)

 **warning** Both end of window has same sign.

 **info** extend bisection window to (1.64386e-09,-1.69481e-09)

 **warning** Both end of window has same sign.

 **info** extend bisection window to (3.3132e-09,-3.36415e-09)

 **warning** Both end of window has same sign.

 **info** extend bisection window to (6.65187e-09,-6.70282e-09)

 **warning** Both end of window has same sign.

 **info** extend bisection window to (1.33292e-08,-1.33802e-08)

 **warning** Both end of window has same sign.

 **info** extend bisection window to (2.66839e-08,-2.67349e-08)

 **warning** Both end of window has same sign.

 **info** extend bisection window to (5.33933e-08,-5.34443e-08)

 **warning** Both end of window has same sign.

 **info** extend bisection window to (1.06812e-07,-1.06863e-07)

 **warning** Both end of window has same sign.

 **info** extend bisection window to (2.1365e-07,-2.13701e-07)

 **warning** Both end of window has same sign.

 **info** extend bisection window to (4.27325e-07,-4.27376e-07)

 **warning** Both end of window has same sign.

 **info** extend bisection window to (8.54675e-07,-8.54726e-07)

 **warning** Both end of window has same sign.

 **info** extend bisection window to (1.70938e-06,-1.70943e-06)

 **warning** Both end of window has same sign.

 **info** extend bisection window to (3.41878e-06,-3.41883e-06)

 **warning** Both end of window has same sign.

 **info** extend bisection window to (6.83758e-06,-6.83763e-06)

 **warning** Both end of window has same sign.

 **info** extend bisection window to (1.36752e-05,-1.36752e-05)

 **warning** Both end of window has same sign.

 setup =    failed       
 sis_passlist =    failed
 sis_fallback1_opt =    failed
  **info** multiple results used in passfail
 **warning** Both end of window has same sign.

 **info** extend bisection window to (-2.02801e-11,-8.38417e-11)

 **warning** Both end of window has same sign.

 **info** extend bisection window to (1.15007e-11,-1.15622e-10)

 **warning** Both end of window has same sign.

 **info** extend bisection window to (7.50623e-11,-1.79184e-10)

 **warning** Both end of window has same sign.

 **info** extend bisection window to (2.02186e-10,-3.06307e-10)

 **warning** Both end of window has same sign.

 **info** extend bisection window to (4.56432e-10,-5.60554e-10)

 **warning** Both end of window has same sign.

 **info** extend bisection window to (9.64925e-10,-1.06905e-09)

 **warning** Both end of window has same sign.

 **info** extend bisection window to (1.98191e-09,-2.08603e-09)

 **warning** Both end of window has same sign.

 **info** extend bisection window to (4.01588e-09,-4.12e-09)

 **warning** Both end of window has same sign.

 **info** extend bisection window to (8.08382e-09,-8.18795e-09)

 **warning** Both end of window has same sign.

 **info** extend bisection window to (1.62197e-08,-1.63238e-08)

 **warning** Both end of window has same sign.

 **info** extend bisection window to (3.24915e-08,-3.25956e-08)

 **warning** Both end of window has same sign.

 **info** extend bisection window to (6.5035e-08,-6.51391e-08)

 **warning** Both end of window has same sign.

 **info** extend bisection window to (1.30122e-07,-1.30226e-07)

 **warning** Both end of window has same sign.

 **info** extend bisection window to (2.60296e-07,-2.604e-07)

 **warning** Both end of window has same sign.

 **info** extend bisection window to (5.20645e-07,-5.20749e-07)

 **warning** Both end of window has same sign.

 **info** extend bisection window to (1.04134e-06,-1.04145e-06)

 **warning** Both end of window has same sign.

 **info** extend bisection window to (2.08273e-06,-2.08284e-06)

 **warning** Both end of window has same sign.

 **info** extend bisection window to (4.16552e-06,-4.16563e-06)

 **warning** Both end of window has same sign.

 **info** extend bisection window to (8.33109e-06,-8.3312e-06)

 **warning** Both end of window has same sign.

 **info** extend bisection window to (1.66622e-05,-1.66623e-05)

 **warning** Both end of window has same sign.

 setup =    failed       
 sis_passlist =    failed
 sis_fallback1_opt =    failed
  **info** multiple results used in passfail
 **warning** Both end of window has same sign.

 **info** extend bisection window to (-5.28265e-11,-1.34141e-10)

 **warning** Both end of window has same sign.

 **info** extend bisection window to (-1.21694e-11,-1.74798e-10)

 **warning** Both end of window has same sign.

 **info** extend bisection window to (6.91448e-11,-2.56112e-10)

 **warning** Both end of window has same sign.

 **info** extend bisection window to (2.31773e-10,-4.1874e-10)

 **warning** Both end of window has same sign.

 **info** extend bisection window to (5.5703e-10,-7.43997e-10)

 **warning** Both end of window has same sign.

 **info** extend bisection window to (1.20754e-09,-1.39451e-09)

 **warning** Both end of window has same sign.

 **info** extend bisection window to (2.50857e-09,-2.69554e-09)

 **warning** Both end of window has same sign.

 **info** extend bisection window to (5.11062e-09,-5.29759e-09)

 **warning** Both end of window has same sign.

 **info** extend bisection window to (1.03147e-08,-1.05017e-08)

 **warning** Both end of window has same sign.

 **info** extend bisection window to (2.07229e-08,-2.09099e-08)

 **warning** Both end of window has same sign.

 **info** extend bisection window to (4.15394e-08,-4.17263e-08)

 **warning** Both end of window has same sign.

 **info** extend bisection window to (8.31722e-08,-8.33592e-08)

 **warning** Both end of window has same sign.

 **info** extend bisection window to (1.66438e-07,-1.66625e-07)

 **warning** Both end of window has same sign.

 **info** extend bisection window to (3.32969e-07,-3.33156e-07)

 **warning** Both end of window has same sign.

 **info** extend bisection window to (6.66032e-07,-6.66219e-07)

 **warning** Both end of window has same sign.

 **info** extend bisection window to (1.33216e-06,-1.33235e-06)

 **warning** Both end of window has same sign.

 **info** extend bisection window to (2.66441e-06,-2.6646e-06)

 **warning** Both end of window has same sign.

 **info** extend bisection window to (5.32891e-06,-5.3291e-06)

 **warning** Both end of window has same sign.

 **info** extend bisection window to (1.06579e-05,-1.06581e-05)

 **warning** Both end of window has same sign.

 **info** extend bisection window to (2.13159e-05,-2.13161e-05)

 **warning** Both end of window has same sign.

 setup =    failed       
 sis_passlist =    failed
 sis_fallback1_opt =    failed
  **info** multiple results used in passfail
 **warning** Both end of window has same sign.

 **info** extend bisection window to (-9.84928e-11,-2.04716e-10)

 **warning** Both end of window has same sign.

 **info** extend bisection window to (-4.53813e-11,-2.57828e-10)

 **warning** Both end of window has same sign.

 **info** extend bisection window to (6.08418e-11,-3.64051e-10)

 **warning** Both end of window has same sign.

 **info** extend bisection window to (2.73288e-10,-5.76497e-10)

 **warning** Both end of window has same sign.

 **info** extend bisection window to (6.98181e-10,-1.00139e-09)

 **warning** Both end of window has same sign.

 **info** extend bisection window to (1.54797e-09,-1.85117e-09)

 **warning** Both end of window has same sign.

 **info** extend bisection window to (3.24754e-09,-3.55074e-09)

 **warning** Both end of window has same sign.

 **info** extend bisection window to (6.64668e-09,-6.94988e-09)

 **warning** Both end of window has same sign.

 **info** extend bisection window to (1.3445e-08,-1.37482e-08)

 **warning** Both end of window has same sign.

 **info** extend bisection window to (2.70415e-08,-2.73447e-08)

 **warning** Both end of window has same sign.

 **info** extend bisection window to (5.42346e-08,-5.45378e-08)

 **warning** Both end of window has same sign.

 **info** extend bisection window to (1.08621e-07,-1.08924e-07)

 **warning** Both end of window has same sign.

 **info** extend bisection window to (2.17393e-07,-2.17697e-07)

 **warning** Both end of window has same sign.

 **info** extend bisection window to (4.34938e-07,-4.35241e-07)

 **warning** Both end of window has same sign.

 **info** extend bisection window to (8.70028e-07,-8.70331e-07)

 **warning** Both end of window has same sign.

 **info** extend bisection window to (1.74021e-06,-1.74051e-06)

 **warning** Both end of window has same sign.

 **info** extend bisection window to (3.48057e-06,-3.48087e-06)

 **warning** Both end of window has same sign.

 **info** extend bisection window to (6.96129e-06,-6.96159e-06)

 **warning** Both end of window has same sign.

 **info** extend bisection window to (1.39227e-05,-1.3923e-05)

 **warning** Both end of window has same sign.

 **info** extend bisection window to (2.78456e-05,-2.78459e-05)

 **warning** Both end of window has same sign.

 setup =    failed       
 sis_passlist =    failed
 sis_fallback1_opt =    failed
  **info** multiple results used in passfail
 **warning** Both end of window has same sign.

 **info** extend bisection window to (-1.58584e-10,-2.97583e-10)

 **warning** Both end of window has same sign.

 **info** extend bisection window to (-8.90836e-11,-3.67083e-10)

 **warning** Both end of window has same sign.

 **info** extend bisection window to (4.99162e-11,-5.06083e-10)

 **warning** Both end of window has same sign.

 **info** extend bisection window to (3.27916e-10,-7.84083e-10)

 **warning** Both end of window has same sign.

 **info** extend bisection window to (8.83916e-10,-1.34008e-09)

 **warning** Both end of window has same sign.

 **info** extend bisection window to (1.99591e-09,-2.45208e-09)

 **warning** Both end of window has same sign.

 **info** extend bisection window to (4.21991e-09,-4.67608e-09)

 **warning** Both end of window has same sign.

 **info** extend bisection window to (8.66791e-09,-9.12408e-09)

 **warning** Both end of window has same sign.

 **info** extend bisection window to (1.75639e-08,-1.80201e-08)

 **warning** Both end of window has same sign.

 **info** extend bisection window to (3.53559e-08,-3.58121e-08)

 **warning** Both end of window has same sign.

 **info** extend bisection window to (7.09399e-08,-7.1396e-08)

 **warning** Both end of window has same sign.

 **info** extend bisection window to (1.42108e-07,-1.42564e-07)

 **warning** Both end of window has same sign.

 **info** extend bisection window to (2.84444e-07,-2.849e-07)

 **warning** Both end of window has same sign.

 **info** extend bisection window to (5.69115e-07,-5.69572e-07)

 **warning** Both end of window has same sign.

 **info** extend bisection window to (1.13846e-06,-1.13892e-06)

 **warning** Both end of window has same sign.

 **info** extend bisection window to (2.27715e-06,-2.2776e-06)

 **warning** Both end of window has same sign.

 **info** extend bisection window to (4.55452e-06,-4.55498e-06)

 **warning** Both end of window has same sign.

 **info** extend bisection window to (9.10927e-06,-9.10972e-06)

 **warning** Both end of window has same sign.

 **info** extend bisection window to (1.82188e-05,-1.82192e-05)

 **warning** Both end of window has same sign.

 **info** extend bisection window to (3.64378e-05,-3.64382e-05)

 **warning** Both end of window has same sign.

 setup =    failed       
 sis_passlist =    failed
 sis_fallback1_opt =    failed
  **info** multiple results used in passfail
 **warning** Both end of window has same sign.

 **info** extend bisection window to (2.85894e-11,-2.18775e-11)

 **warning** Both end of window has same sign.

 **info** extend bisection window to (5.38228e-11,-4.71109e-11)

 **warning** Both end of window has same sign.

 **info** extend bisection window to (1.0429e-10,-9.75778e-11)

 **warning** Both end of window has same sign.

 **info** extend bisection window to (2.05223e-10,-1.98512e-10)

 **warning** Both end of window has same sign.

 **info** extend bisection window to (4.07091e-10,-4.00379e-10)

 **warning** Both end of window has same sign.

 **info** extend bisection window to (8.10826e-10,-8.04114e-10)

 **warning** Both end of window has same sign.

 **info** extend bisection window to (1.6183e-09,-1.61158e-09)

 **warning** Both end of window has same sign.

 **info** extend bisection window to (3.23324e-09,-3.22652e-09)

 **warning** Both end of window has same sign.

 **info** extend bisection window to (6.46312e-09,-6.45641e-09)

 **warning** Both end of window has same sign.

 **info** extend bisection window to (1.29229e-08,-1.29162e-08)

 **warning** Both end of window has same sign.

 **info** extend bisection window to (2.58424e-08,-2.58357e-08)

 **warning** Both end of window has same sign.

 **info** extend bisection window to (5.16814e-08,-5.16747e-08)

 **warning** Both end of window has same sign.

 **info** extend bisection window to (1.0336e-07,-1.03353e-07)

 **warning** Both end of window has same sign.

 **info** extend bisection window to (2.06716e-07,-2.06709e-07)

 **warning** Both end of window has same sign.

 **info** extend bisection window to (4.13428e-07,-4.13421e-07)

 **warning** Both end of window has same sign.

 **info** extend bisection window to (8.26853e-07,-8.26846e-07)

 **warning** Both end of window has same sign.

 **info** extend bisection window to (1.6537e-06,-1.6537e-06)

 **warning** Both end of window has same sign.

 **info** extend bisection window to (3.3074e-06,-3.30739e-06)

 **warning** Both end of window has same sign.

 **info** extend bisection window to (6.6148e-06,-6.61479e-06)

 **warning** Both end of window has same sign.

 **info** extend bisection window to (1.32296e-05,-1.32296e-05)

 **warning** Both end of window has same sign.

 setup =    failed       
 sis_passlist =    failed
 sis_fallback1_opt =    failed
  **info** multiple results used in passfail
 **warning** Both end of window has same sign.

 **info** extend bisection window to (2.54729e-11,-2.66938e-11)

 **warning** Both end of window has same sign.

 **info** extend bisection window to (5.15563e-11,-5.27772e-11)

 **warning** Both end of window has same sign.

 **info** extend bisection window to (1.03723e-10,-1.04944e-10)

 **warning** Both end of window has same sign.

 **info** extend bisection window to (2.08057e-10,-2.09278e-10)

 **warning** Both end of window has same sign.

 **info** extend bisection window to (4.16724e-10,-4.17945e-10)

 **warning** Both end of window has same sign.

 **info** extend bisection window to (8.34058e-10,-8.35279e-10)

 **warning** Both end of window has same sign.

 **info** extend bisection window to (1.66873e-09,-1.66995e-09)

 **warning** Both end of window has same sign.

 **info** extend bisection window to (3.33806e-09,-3.33928e-09)

 **warning** Both end of window has same sign.

 **info** extend bisection window to (6.67674e-09,-6.67796e-09)

 **warning** Both end of window has same sign.

 **info** extend bisection window to (1.33541e-08,-1.33553e-08)

 **warning** Both end of window has same sign.

 **info** extend bisection window to (2.67088e-08,-2.671e-08)

 **warning** Both end of window has same sign.

 **info** extend bisection window to (5.34182e-08,-5.34194e-08)

 **warning** Both end of window has same sign.

 **info** extend bisection window to (1.06837e-07,-1.06838e-07)

 **warning** Both end of window has same sign.

 **info** extend bisection window to (2.13674e-07,-2.13676e-07)

 **warning** Both end of window has same sign.

 **info** extend bisection window to (4.2735e-07,-4.27351e-07)

 **warning** Both end of window has same sign.

 **info** extend bisection window to (8.547e-07,-8.54701e-07)

 **warning** Both end of window has same sign.

 **info** extend bisection window to (1.7094e-06,-1.7094e-06)

 **warning** Both end of window has same sign.

 **info** extend bisection window to (3.4188e-06,-3.4188e-06)

 **warning** Both end of window has same sign.

 **info** extend bisection window to (6.8376e-06,-6.8376e-06)

 **warning** Both end of window has same sign.

 **info** extend bisection window to (1.36752e-05,-1.36752e-05)

 **warning** Both end of window has same sign.

 setup =    failed       
 sis_passlist =    failed
 sis_fallback1_opt =    failed
  **info** multiple results used in passfail
 **warning** Both end of window has same sign.

 **info** extend bisection window to (1.45334e-11,-4.36003e-11)

 **warning** Both end of window has same sign.

 **info** extend bisection window to (4.36003e-11,-7.26672e-11)

 **warning** Both end of window has same sign.

 **info** extend bisection window to (1.01734e-10,-1.30801e-10)

 **warning** Both end of window has same sign.

 **info** extend bisection window to (2.18002e-10,-2.47069e-10)

 **warning** Both end of window has same sign.

 **info** extend bisection window to (4.50537e-10,-4.79604e-10)

 **warning** Both end of window has same sign.

 **info** extend bisection window to (9.15607e-10,-9.44674e-10)

 **warning** Both end of window has same sign.

 **info** extend bisection window to (1.84575e-09,-1.87481e-09)

 **warning** Both end of window has same sign.

 **info** extend bisection window to (3.70603e-09,-3.73509e-09)

 **warning** Both end of window has same sign.

 **info** extend bisection window to (7.42659e-09,-7.45566e-09)

 **warning** Both end of window has same sign.

 **info** extend bisection window to (1.48677e-08,-1.48968e-08)

 **warning** Both end of window has same sign.

 **info** extend bisection window to (2.975e-08,-2.9779e-08)

 **warning** Both end of window has same sign.

 **info** extend bisection window to (5.95144e-08,-5.95435e-08)

 **warning** Both end of window has same sign.

 **info** extend bisection window to (1.19043e-07,-1.19072e-07)

 **warning** Both end of window has same sign.

 **info** extend bisection window to (2.38101e-07,-2.3813e-07)

 **warning** Both end of window has same sign.

 **info** extend bisection window to (4.76217e-07,-4.76246e-07)

 **warning** Both end of window has same sign.

 **info** extend bisection window to (9.52449e-07,-9.52478e-07)

 **warning** Both end of window has same sign.

 **info** extend bisection window to (1.90491e-06,-1.90494e-06)

 **warning** Both end of window has same sign.

 **info** extend bisection window to (3.80984e-06,-3.80987e-06)

 **warning** Both end of window has same sign.

 **info** extend bisection window to (7.61969e-06,-7.61972e-06)

 **warning** Both end of window has same sign.

 **info** extend bisection window to (1.52394e-05,-1.52394e-05)

 **warning** Both end of window has same sign.

 setup =    failed       
 sis_passlist =    failed
 sis_fallback1_opt =    failed
  **info** multiple results used in passfail
 **warning** Both end of window has same sign.

 **info** extend bisection window to (-6.35708e-12,-7.58857e-11)

 **warning** Both end of window has same sign.

 **info** extend bisection window to (2.84072e-11,-1.1065e-10)

 **warning** Both end of window has same sign.

 **info** extend bisection window to (9.79358e-11,-1.80179e-10)

 **warning** Both end of window has same sign.

 **info** extend bisection window to (2.36993e-10,-3.19236e-10)

 **warning** Both end of window has same sign.

 **info** extend bisection window to (5.15107e-10,-5.9735e-10)

 **warning** Both end of window has same sign.

 **info** extend bisection window to (1.07134e-09,-1.15358e-09)

 **warning** Both end of window has same sign.

 **info** extend bisection window to (2.18379e-09,-2.26604e-09)

 **warning** Both end of window has same sign.

 **info** extend bisection window to (4.40871e-09,-4.49095e-09)

 **warning** Both end of window has same sign.

 **info** extend bisection window to (8.85854e-09,-8.94078e-09)

 **warning** Both end of window has same sign.

 **info** extend bisection window to (1.77582e-08,-1.78404e-08)

 **warning** Both end of window has same sign.

 **info** extend bisection window to (3.55575e-08,-3.56398e-08)

 **warning** Both end of window has same sign.

 **info** extend bisection window to (7.11562e-08,-7.12384e-08)

 **warning** Both end of window has same sign.

 **info** extend bisection window to (1.42353e-07,-1.42436e-07)

 **warning** Both end of window has same sign.

 **info** extend bisection window to (2.84748e-07,-2.8483e-07)

 **warning** Both end of window has same sign.

 **info** extend bisection window to (5.69537e-07,-5.69619e-07)

 **warning** Both end of window has same sign.

 **info** extend bisection window to (1.13912e-06,-1.1392e-06)

 **warning** Both end of window has same sign.

 **info** extend bisection window to (2.27827e-06,-2.27835e-06)

 **warning** Both end of window has same sign.

 **info** extend bisection window to (4.55658e-06,-4.55667e-06)

 **warning** Both end of window has same sign.

 **info** extend bisection window to (9.11321e-06,-9.11329e-06)

 **warning** Both end of window has same sign.

 **info** extend bisection window to (1.82265e-05,-1.82265e-05)

 **warning** Both end of window has same sign.

 setup =    failed       
 sis_passlist =    failed
 sis_fallback1_opt =    failed
  **info** multiple results used in passfail
 **warning** Both end of window has same sign.

 **info** extend bisection window to (-3.89035e-11,-1.26185e-10)

 **warning** Both end of window has same sign.

 **info** extend bisection window to (4.73711e-12,-1.69825e-10)

 **warning** Both end of window has same sign.

 **info** extend bisection window to (9.20183e-11,-2.57106e-10)

 **warning** Both end of window has same sign.

 **info** extend bisection window to (2.66581e-10,-4.31669e-10)

 **warning** Both end of window has same sign.

 **info** extend bisection window to (6.15705e-10,-7.80794e-10)

 **warning** Both end of window has same sign.

 **info** extend bisection window to (1.31395e-09,-1.47904e-09)

 **warning** Both end of window has same sign.

 **info** extend bisection window to (2.71045e-09,-2.87554e-09)

 **warning** Both end of window has same sign.

 **info** extend bisection window to (5.50345e-09,-5.66854e-09)

 **warning** Both end of window has same sign.

 **info** extend bisection window to (1.10894e-08,-1.12545e-08)

 **warning** Both end of window has same sign.

 **info** extend bisection window to (2.22614e-08,-2.24265e-08)

 **warning** Both end of window has same sign.

 **info** extend bisection window to (4.46054e-08,-4.47705e-08)

 **warning** Both end of window has same sign.

 **info** extend bisection window to (8.92934e-08,-8.94585e-08)

 **warning** Both end of window has same sign.

 **info** extend bisection window to (1.78669e-07,-1.78834e-07)

 **warning** Both end of window has same sign.

 **info** extend bisection window to (3.57421e-07,-3.57586e-07)

 **warning** Both end of window has same sign.

 **info** extend bisection window to (7.14925e-07,-7.1509e-07)

 **warning** Both end of window has same sign.

 **info** extend bisection window to (1.42993e-06,-1.4301e-06)

 **warning** Both end of window has same sign.

 **info** extend bisection window to (2.85995e-06,-2.86011e-06)

 **warning** Both end of window has same sign.

 **info** extend bisection window to (5.71998e-06,-5.72014e-06)

 **warning** Both end of window has same sign.

 **info** extend bisection window to (1.144e-05,-1.14402e-05)

 **warning** Both end of window has same sign.

 **info** extend bisection window to (2.28802e-05,-2.28803e-05)

 **warning** Both end of window has same sign.

 setup =    failed       
 sis_passlist =    failed
 sis_fallback1_opt =    failed
  **info** multiple results used in passfail
 **warning** Both end of window has same sign.

 **info** extend bisection window to (-8.45699e-11,-1.9676e-10)

 **warning** Both end of window has same sign.

 **info** extend bisection window to (-2.84748e-11,-2.52855e-10)

 **warning** Both end of window has same sign.

 **info** extend bisection window to (8.37153e-11,-3.65045e-10)

 **warning** Both end of window has same sign.

 **info** extend bisection window to (3.08096e-10,-5.89425e-10)

 **warning** Both end of window has same sign.

 **info** extend bisection window to (7.56856e-10,-1.03819e-09)

 **warning** Both end of window has same sign.

 **info** extend bisection window to (1.65438e-09,-1.93571e-09)

 **warning** Both end of window has same sign.

 **info** extend bisection window to (3.44942e-09,-3.73075e-09)

 **warning** Both end of window has same sign.

 **info** extend bisection window to (7.0395e-09,-7.32083e-09)

 **warning** Both end of window has same sign.

 **info** extend bisection window to (1.42197e-08,-1.4501e-08)

 **warning** Both end of window has same sign.

 **info** extend bisection window to (2.858e-08,-2.88613e-08)

 **warning** Both end of window has same sign.

 **info** extend bisection window to (5.73007e-08,-5.7582e-08)

 **warning** Both end of window has same sign.

 **info** extend bisection window to (1.14742e-07,-1.15023e-07)

 **warning** Both end of window has same sign.

 **info** extend bisection window to (2.29625e-07,-2.29906e-07)

 **warning** Both end of window has same sign.

 **info** extend bisection window to (4.5939e-07,-4.59671e-07)

 **warning** Both end of window has same sign.

 **info** extend bisection window to (9.18921e-07,-9.19202e-07)

 **warning** Both end of window has same sign.

 **info** extend bisection window to (1.83798e-06,-1.83826e-06)

 **warning** Both end of window has same sign.

 **info** extend bisection window to (3.6761e-06,-3.67639e-06)

 **warning** Both end of window has same sign.

 **info** extend bisection window to (7.35235e-06,-7.35263e-06)

 **warning** Both end of window has same sign.

 **info** extend bisection window to (1.47048e-05,-1.47051e-05)

 **warning** Both end of window has same sign.

 **info** extend bisection window to (2.94098e-05,-2.94101e-05)

 **warning** Both end of window has same sign.

 setup =    failed       
 sis_passlist =    failed
 sis_fallback1_opt =    failed
  **info** multiple results used in passfail
 **warning** Both end of window has same sign.

 **info** extend bisection window to (-1.44661e-10,-2.89627e-10)

 **warning** Both end of window has same sign.

 **info** extend bisection window to (-7.21772e-11,-3.62111e-10)

 **warning** Both end of window has same sign.

 **info** extend bisection window to (7.27897e-11,-5.07078e-10)

 **warning** Both end of window has same sign.

 **info** extend bisection window to (3.62723e-10,-7.97012e-10)

 **warning** Both end of window has same sign.

 **info** extend bisection window to (9.42591e-10,-1.37688e-09)

 **warning** Both end of window has same sign.

 **info** extend bisection window to (2.10233e-09,-2.53661e-09)

 **warning** Both end of window has same sign.

 **info** extend bisection window to (4.4218e-09,-4.85608e-09)

 **warning** Both end of window has same sign.

 **info** extend bisection window to (9.06074e-09,-9.49502e-09)

 **warning** Both end of window has same sign.

 **info** extend bisection window to (1.83386e-08,-1.87729e-08)

 **warning** Both end of window has same sign.

 **info** extend bisection window to (3.68944e-08,-3.73287e-08)

 **warning** Both end of window has same sign.

 **info** extend bisection window to (7.40059e-08,-7.44402e-08)

 **warning** Both end of window has same sign.

 **info** extend bisection window to (1.48229e-07,-1.48663e-07)

 **warning** Both end of window has same sign.

 **info** extend bisection window to (2.96675e-07,-2.97109e-07)

 **warning** Both end of window has same sign.

 **info** extend bisection window to (5.93567e-07,-5.94001e-07)

 **warning** Both end of window has same sign.

 **info** extend bisection window to (1.18735e-06,-1.18779e-06)

 **warning** Both end of window has same sign.

 **info** extend bisection window to (2.37492e-06,-2.37535e-06)

 **warning** Both end of window has same sign.

 **info** extend bisection window to (4.75006e-06,-4.75049e-06)

 **warning** Both end of window has same sign.

 **info** extend bisection window to (9.50033e-06,-9.50077e-06)

 **warning** Both end of window has same sign.

 **info** extend bisection window to (1.90009e-05,-1.90013e-05)

 **warning** Both end of window has same sign.

 **info** extend bisection window to (3.8002e-05,-3.80024e-05)

 **warning** Both end of window has same sign.

 setup =    failed       
 sis_passlist =    failed
 sis_fallback1_opt =    failed
  **info** multiple results used in passfail
 **warning** Both end of window has same sign.

 **info** extend bisection window to (5.51773e-11,-6.68438e-12)

 **warning** Both end of window has same sign.

 **info** extend bisection window to (8.61082e-11,-3.76152e-11)

 **warning** Both end of window has same sign.

 **info** extend bisection window to (1.4797e-10,-9.9477e-11)

 **warning** Both end of window has same sign.

 **info** extend bisection window to (2.71693e-10,-2.232e-10)

 **warning** Both end of window has same sign.

 **info** extend bisection window to (5.1914e-10,-4.70647e-10)

 **warning** Both end of window has same sign.

 **info** extend bisection window to (1.01403e-09,-9.65541e-10)

 **warning** Both end of window has same sign.

 **info** extend bisection window to (2.00382e-09,-1.95533e-09)

 **warning** Both end of window has same sign.

 **info** extend bisection window to (3.9834e-09,-3.9349e-09)

 **warning** Both end of window has same sign.

 **info** extend bisection window to (7.94255e-09,-7.89405e-09)

 **warning** Both end of window has same sign.

 **info** extend bisection window to (1.58608e-08,-1.58124e-08)

 **warning** Both end of window has same sign.

 **info** extend bisection window to (3.16974e-08,-3.1649e-08)

 **warning** Both end of window has same sign.

 **info** extend bisection window to (6.33706e-08,-6.33221e-08)

 **warning** Both end of window has same sign.

 **info** extend bisection window to (1.26717e-07,-1.26669e-07)

 **warning** Both end of window has same sign.

 **info** extend bisection window to (2.5341e-07,-2.53361e-07)

 **warning** Both end of window has same sign.

 **info** extend bisection window to (5.06795e-07,-5.06747e-07)

 **warning** Both end of window has same sign.

 **info** extend bisection window to (1.01357e-06,-1.01352e-06)

 **warning** Both end of window has same sign.

 **info** extend bisection window to (2.02711e-06,-2.02706e-06)

 **warning** Both end of window has same sign.

 **info** extend bisection window to (4.05419e-06,-4.05414e-06)

 **warning** Both end of window has same sign.

 **info** extend bisection window to (8.10836e-06,-8.10831e-06)

 **warning** Both end of window has same sign.

 **info** extend bisection window to (1.62167e-05,-1.62167e-05)

 **warning** Both end of window has same sign.

 setup =    failed       
 sis_passlist =    failed
 sis_fallback1_opt =    failed
  **info** multiple results used in passfail
 **warning** Both end of window has same sign.

 **info** extend bisection window to (5.20609e-11,-1.15007e-11)

 **warning** Both end of window has same sign.

 **info** extend bisection window to (8.38417e-11,-4.32815e-11)

 **warning** Both end of window has same sign.

 **info** extend bisection window to (1.47403e-10,-1.06843e-10)

 **warning** Both end of window has same sign.

 **info** extend bisection window to (2.74526e-10,-2.33966e-10)

 **warning** Both end of window has same sign.

 **info** extend bisection window to (5.28773e-10,-4.88213e-10)

 **warning** Both end of window has same sign.

 **info** extend bisection window to (1.03727e-09,-9.96706e-10)

 **warning** Both end of window has same sign.

 **info** extend bisection window to (2.05425e-09,-2.01369e-09)

 **warning** Both end of window has same sign.

 **info** extend bisection window to (4.08822e-09,-4.04766e-09)

 **warning** Both end of window has same sign.

 **info** extend bisection window to (8.15617e-09,-8.11561e-09)

 **warning** Both end of window has same sign.

 **info** extend bisection window to (1.62921e-08,-1.62515e-08)

 **warning** Both end of window has same sign.

 **info** extend bisection window to (3.25638e-08,-3.25233e-08)

 **warning** Both end of window has same sign.

 **info** extend bisection window to (6.51074e-08,-6.50668e-08)

 **warning** Both end of window has same sign.

 **info** extend bisection window to (1.30194e-07,-1.30154e-07)

 **warning** Both end of window has same sign.

 **info** extend bisection window to (2.60369e-07,-2.60328e-07)

 **warning** Both end of window has same sign.

 **info** extend bisection window to (5.20717e-07,-5.20676e-07)

 **warning** Both end of window has same sign.

 **info** extend bisection window to (1.04141e-06,-1.04137e-06)

 **warning** Both end of window has same sign.

 **info** extend bisection window to (2.08281e-06,-2.08277e-06)

 **warning** Both end of window has same sign.

 **info** extend bisection window to (4.16559e-06,-4.16555e-06)

 **warning** Both end of window has same sign.

 **info** extend bisection window to (8.33117e-06,-8.33113e-06)

 **warning** Both end of window has same sign.

 **info** extend bisection window to (1.66623e-05,-1.66623e-05)

 **warning** Both end of window has same sign.

 setup =    failed       
 sis_passlist =    failed
 sis_fallback1_opt =    failed
  **info** multiple results used in passfail
 **warning** Both end of window has same sign.

 **info** extend bisection window to (4.11214e-11,-2.84072e-11)

 **warning** Both end of window has same sign.

 **info** extend bisection window to (7.58857e-11,-6.31715e-11)

 **warning** Both end of window has same sign.

 **info** extend bisection window to (1.45414e-10,-1.327e-10)

 **warning** Both end of window has same sign.

 **info** extend bisection window to (2.84471e-10,-2.71757e-10)

 **warning** Both end of window has same sign.

 **info** extend bisection window to (5.62586e-10,-5.49872e-10)

 **warning** Both end of window has same sign.

 **info** extend bisection window to (1.11881e-09,-1.1061e-09)

 **warning** Both end of window has same sign.

 **info** extend bisection window to (2.23127e-09,-2.21856e-09)

 **warning** Both end of window has same sign.

 **info** extend bisection window to (4.45619e-09,-4.44347e-09)

 **warning** Both end of window has same sign.

 **info** extend bisection window to (8.90602e-09,-8.8933e-09)

 **warning** Both end of window has same sign.

 **info** extend bisection window to (1.78057e-08,-1.7793e-08)

 **warning** Both end of window has same sign.

 **info** extend bisection window to (3.5605e-08,-3.55923e-08)

 **warning** Both end of window has same sign.

 **info** extend bisection window to (7.12036e-08,-7.11909e-08)

 **warning** Both end of window has same sign.

 **info** extend bisection window to (1.42401e-07,-1.42388e-07)

 **warning** Both end of window has same sign.

 **info** extend bisection window to (2.84795e-07,-2.84783e-07)

 **warning** Both end of window has same sign.

 **info** extend bisection window to (5.69585e-07,-5.69572e-07)

 **warning** Both end of window has same sign.

 **info** extend bisection window to (1.13916e-06,-1.13915e-06)

 **warning** Both end of window has same sign.

 **info** extend bisection window to (2.27832e-06,-2.27831e-06)

 **warning** Both end of window has same sign.

 **info** extend bisection window to (4.55663e-06,-4.55662e-06)

 **warning** Both end of window has same sign.

 **info** extend bisection window to (9.11326e-06,-9.11325e-06)

 **warning** Both end of window has same sign.

 **info** extend bisection window to (1.82265e-05,-1.82265e-05)

 **warning** Both end of window has same sign.

 setup =    failed       
 sis_passlist =    failed
 sis_fallback1_opt =    failed
  **info** multiple results used in passfail
 **warning** Both end of window has same sign.

 **info** extend bisection window to (2.02309e-11,-6.06926e-11)

 **warning** Both end of window has same sign.

 **info** extend bisection window to (6.06926e-11,-1.01154e-10)

 **warning** Both end of window has same sign.

 **info** extend bisection window to (1.41616e-10,-1.82078e-10)

 **warning** Both end of window has same sign.

 **info** extend bisection window to (3.03463e-10,-3.43925e-10)

 **warning** Both end of window has same sign.

 **info** extend bisection window to (6.27157e-10,-6.67618e-10)

 **warning** Both end of window has same sign.

 **info** extend bisection window to (1.27454e-09,-1.31501e-09)

 **warning** Both end of window has same sign.

 **info** extend bisection window to (2.56932e-09,-2.60978e-09)

 **warning** Both end of window has same sign.

 **info** extend bisection window to (5.15887e-09,-5.19933e-09)

 **warning** Both end of window has same sign.

 **info** extend bisection window to (1.0338e-08,-1.03784e-08)

 **warning** Both end of window has same sign.

 **info** extend bisection window to (2.06962e-08,-2.07366e-08)

 **warning** Both end of window has same sign.

 **info** extend bisection window to (4.14126e-08,-4.1453e-08)

 **warning** Both end of window has same sign.

 **info** extend bisection window to (8.28454e-08,-8.28858e-08)

 **warning** Both end of window has same sign.

 **info** extend bisection window to (1.65711e-07,-1.65751e-07)

 **warning** Both end of window has same sign.

 **info** extend bisection window to (3.31442e-07,-3.31483e-07)

 **warning** Both end of window has same sign.

 **info** extend bisection window to (6.62904e-07,-6.62945e-07)

 **warning** Both end of window has same sign.

 **info** extend bisection window to (1.32583e-06,-1.32587e-06)

 **warning** Both end of window has same sign.

 **info** extend bisection window to (2.65168e-06,-2.65172e-06)

 **warning** Both end of window has same sign.

 **info** extend bisection window to (5.30338e-06,-5.30342e-06)

 **warning** Both end of window has same sign.

 **info** extend bisection window to (1.06068e-05,-1.06068e-05)

 **warning** Both end of window has same sign.

 **info** extend bisection window to (2.12136e-05,-2.12136e-05)

 **warning** Both end of window has same sign.

 setup =    failed       
 sis_passlist =    failed
 sis_fallback1_opt =    failed
  **info** multiple results used in passfail
 **warning** Both end of window has same sign.

 **info** extend bisection window to (-1.23155e-11,-1.10992e-10)

 **warning** Both end of window has same sign.

 **info** extend bisection window to (3.70225e-11,-1.6033e-10)

 **warning** Both end of window has same sign.

 **info** extend bisection window to (1.35698e-10,-2.59006e-10)

 **warning** Both end of window has same sign.

 **info** extend bisection window to (3.3305e-10,-4.56358e-10)

 **warning** Both end of window has same sign.

 **info** extend bisection window to (7.27755e-10,-8.51062e-10)

 **warning** Both end of window has same sign.

 **info** extend bisection window to (1.51716e-09,-1.64047e-09)

 **warning** Both end of window has same sign.

 **info** extend bisection window to (3.09598e-09,-3.21929e-09)

 **warning** Both end of window has same sign.

 **info** extend bisection window to (6.25361e-09,-6.37692e-09)

 **warning** Both end of window has same sign.

 **info** extend bisection window to (1.25689e-08,-1.26922e-08)

 **warning** Both end of window has same sign.

 **info** extend bisection window to (2.51994e-08,-2.53227e-08)

 **warning** Both end of window has same sign.

 **info** extend bisection window to (5.04605e-08,-5.05838e-08)

 **warning** Both end of window has same sign.

 **info** extend bisection window to (1.00983e-07,-1.01106e-07)

 **warning** Both end of window has same sign.

 **info** extend bisection window to (2.02027e-07,-2.0215e-07)

 **warning** Both end of window has same sign.

 **info** extend bisection window to (4.04115e-07,-4.04239e-07)

 **warning** Both end of window has same sign.

 **info** extend bisection window to (8.08292e-07,-8.08416e-07)

 **warning** Both end of window has same sign.

 **info** extend bisection window to (1.61665e-06,-1.61677e-06)

 **warning** Both end of window has same sign.

 **info** extend bisection window to (3.23335e-06,-3.23348e-06)

 **warning** Both end of window has same sign.

 **info** extend bisection window to (6.46677e-06,-6.46689e-06)

 **warning** Both end of window has same sign.

 **info** extend bisection window to (1.29336e-05,-1.29337e-05)

 **warning** Both end of window has same sign.

 **info** extend bisection window to (2.58673e-05,-2.58674e-05)

 **warning** Both end of window has same sign.

 setup =    failed       
 sis_passlist =    failed
 sis_fallback1_opt =    failed
  **info** multiple results used in passfail
 **warning** Both end of window has same sign.

 **info** extend bisection window to (-5.79819e-11,-1.81567e-10)

 **warning** Both end of window has same sign.

 **info** extend bisection window to (3.81055e-12,-2.43359e-10)

 **warning** Both end of window has same sign.

 **info** extend bisection window to (1.27395e-10,-3.66944e-10)

 **warning** Both end of window has same sign.

 **info** extend bisection window to (3.74565e-10,-6.14114e-10)

 **warning** Both end of window has same sign.

 **info** extend bisection window to (8.68905e-10,-1.10845e-09)

 **warning** Both end of window has same sign.

 **info** extend bisection window to (1.85758e-09,-2.09713e-09)

 **warning** Both end of window has same sign.

 **info** extend bisection window to (3.83494e-09,-4.07449e-09)

 **warning** Both end of window has same sign.

 **info** extend bisection window to (7.78966e-09,-8.02921e-09)

 **warning** Both end of window has same sign.

 **info** extend bisection window to (1.56991e-08,-1.59386e-08)

 **warning** Both end of window has same sign.

 **info** extend bisection window to (3.1518e-08,-3.17575e-08)

 **warning** Both end of window has same sign.

 **info** extend bisection window to (6.31557e-08,-6.33953e-08)

 **warning** Both end of window has same sign.

 **info** extend bisection window to (1.26431e-07,-1.26671e-07)

 **warning** Both end of window has same sign.

 **info** extend bisection window to (2.52982e-07,-2.53222e-07)

 **warning** Both end of window has same sign.

 **info** extend bisection window to (5.06084e-07,-5.06324e-07)

 **warning** Both end of window has same sign.

 **info** extend bisection window to (1.01229e-06,-1.01253e-06)

 **warning** Both end of window has same sign.

 **info** extend bisection window to (2.0247e-06,-2.02494e-06)

 **warning** Both end of window has same sign.

 **info** extend bisection window to (4.04951e-06,-4.04975e-06)

 **warning** Both end of window has same sign.

 **info** extend bisection window to (8.09914e-06,-8.09938e-06)

 **warning** Both end of window has same sign.

 **info** extend bisection window to (1.61984e-05,-1.61986e-05)

 **warning** Both end of window has same sign.

 **info** extend bisection window to (3.23969e-05,-3.23972e-05)

 **warning** Both end of window has same sign.

 setup =    failed       
 sis_passlist =    failed
 sis_fallback1_opt =    failed
  **info** multiple results used in passfail
 **warning** Both end of window has same sign.

 **info** extend bisection window to (-1.18073e-10,-2.74434e-10)

 **warning** Both end of window has same sign.

 **info** extend bisection window to (-3.98918e-11,-3.52615e-10)

 **warning** Both end of window has same sign.

 **info** extend bisection window to (1.1647e-10,-5.08977e-10)

 **warning** Both end of window has same sign.

 **info** extend bisection window to (4.29193e-10,-8.217e-10)

 **warning** Both end of window has same sign.

 **info** extend bisection window to (1.05464e-09,-1.44715e-09)

 **warning** Both end of window has same sign.

 **info** extend bisection window to (2.30553e-09,-2.69804e-09)

 **warning** Both end of window has same sign.

 **info** extend bisection window to (4.80732e-09,-5.19983e-09)

 **warning** Both end of window has same sign.

 **info** extend bisection window to (9.8109e-09,-1.02034e-08)

 **warning** Both end of window has same sign.

 **info** extend bisection window to (1.9818e-08,-2.02106e-08)

 **warning** Both end of window has same sign.

 **info** extend bisection window to (3.98323e-08,-4.02249e-08)

 **warning** Both end of window has same sign.

 **info** extend bisection window to (7.98609e-08,-8.02535e-08)

 **warning** Both end of window has same sign.

 **info** extend bisection window to (1.59918e-07,-1.60311e-07)

 **warning** Both end of window has same sign.

 **info** extend bisection window to (3.20033e-07,-3.20425e-07)

 **warning** Both end of window has same sign.

 **info** extend bisection window to (6.40261e-07,-6.40654e-07)

 **warning** Both end of window has same sign.

 **info** extend bisection window to (1.28072e-06,-1.28111e-06)

 **warning** Both end of window has same sign.

 **info** extend bisection window to (2.56163e-06,-2.56203e-06)

 **warning** Both end of window has same sign.

 **info** extend bisection window to (5.12346e-06,-5.12386e-06)

 **warning** Both end of window has same sign.

 **info** extend bisection window to (1.02471e-05,-1.02475e-05)

 **warning** Both end of window has same sign.

 **info** extend bisection window to (2.04944e-05,-2.04948e-05)

 **warning** Both end of window has same sign.

 **info** extend bisection window to (4.09891e-05,-4.09895e-05)

 **warning** Both end of window has same sign.

 setup =    failed       
 sis_passlist =    failed
 sis_fallback1_opt =    failed
  **info** multiple results used in passfail
 **warning** Both end of window has same sign.

 **info** extend bisection window to (9.66e-11,1.69857e-11)

 **warning** Both end of window has same sign.

 **info** extend bisection window to (1.36407e-10,-2.28214e-11)

 **warning** Both end of window has same sign.

 **info** extend bisection window to (2.16021e-10,-1.02436e-10)

 **warning** Both end of window has same sign.

 **info** extend bisection window to (3.7525e-10,-2.61664e-10)

 **warning** Both end of window has same sign.

 **info** extend bisection window to (6.93707e-10,-5.80121e-10)

 **warning** Both end of window has same sign.

 **info** extend bisection window to (1.33062e-09,-1.21704e-09)

 **warning** Both end of window has same sign.

 **info** extend bisection window to (2.60445e-09,-2.49086e-09)

 **warning** Both end of window has same sign.

 **info** extend bisection window to (5.15211e-09,-5.03852e-09)

 **warning** Both end of window has same sign.

 **info** extend bisection window to (1.02474e-08,-1.01338e-08)

 **warning** Both end of window has same sign.

 **info** extend bisection window to (2.04381e-08,-2.03245e-08)

 **warning** Both end of window has same sign.

 **info** extend bisection window to (4.08193e-08,-4.07057e-08)

 **warning** Both end of window has same sign.

[...]

 **warning** Both end of window has same sign.

 **info** extend bisection window to (1.63028e-06,-1.63052e-06)

 **warning** Both end of window has same sign.

 **info** extend bisection window to (3.26068e-06,-3.26091e-06)

 **warning** Both end of window has same sign.

 **info** extend bisection window to (6.52148e-06,-6.52171e-06)

 **warning** Both end of window has same sign.

 **info** extend bisection window to (1.30431e-05,-1.30433e-05)

 **warning** Both end of window has same sign.

 **info** extend bisection window to (2.60863e-05,-2.60865e-05)

 **warning** Both end of window has same sign.

 **info** extend bisection window to (5.21726e-05,-5.21729e-05)

 **warning** Both end of window has same sign.

 setup =    failed       
 sis_passlist =    failed
 sis_fallback1_opt =    failed
  **info** multiple results used in passfail
 **warning** Both end of window has same sign.

 **info** extend bisection window to (2.312e-10,9.39e-11)

 **warning** Both end of window has same sign.

 **info** extend bisection window to (2.9985e-10,2.525e-11)

 **warning** Both end of window has same sign.

 **info** extend bisection window to (4.3715e-10,-1.1205e-10)

 **warning** Both end of window has same sign.

 **info** extend bisection window to (7.1175e-10,-3.8665e-10)

 **warning** Both end of window has same sign.

 **info** extend bisection window to (1.26095e-09,-9.3585e-10)

 **warning** Both end of window has same sign.

 **info** extend bisection window to (2.35935e-09,-2.03425e-09)

 **warning** Both end of window has same sign.

 **info** extend bisection window to (4.55615e-09,-4.23105e-09)

 **warning** Both end of window has same sign.

 **info** extend bisection window to (8.94975e-09,-8.62465e-09)

 **warning** Both end of window has same sign.

 **info** extend bisection window to (1.77369e-08,-1.74118e-08)

 **warning** Both end of window has same sign.

 **info** extend bisection window to (3.53113e-08,-3.49862e-08)

 **warning** Both end of window has same sign.

 **info** extend bisection window to (7.04601e-08,-7.0135e-08)

 **warning** Both end of window has same sign.

 **info** extend bisection window to (1.40758e-07,-1.40433e-07)

 **warning** Both end of window has same sign.

 **info** extend bisection window to (2.81353e-07,-2.81028e-07)

 **warning** Both end of window has same sign.

 **info** extend bisection window to (5.62543e-07,-5.62218e-07)

 **warning** Both end of window has same sign.

 **info** extend bisection window to (1.12492e-06,-1.1246e-06)

 **warning** Both end of window has same sign.

 **info** extend bisection window to (2.24969e-06,-2.24936e-06)

 **warning** Both end of window has same sign.

 **info** extend bisection window to (4.49921e-06,-4.49888e-06)

 **warning** Both end of window has same sign.

 **info** extend bisection window to (8.99826e-06,-8.99793e-06)

 **warning** Both end of window has same sign.

 **info** extend bisection window to (1.79963e-05,-1.7996e-05)

 **warning** Both end of window has same sign.

 **info** extend bisection window to (3.59925e-05,-3.59922e-05)

 **warning** Both end of window has same sign.

 setup =    failed       
 sis_passlist =    failed
 sis_fallback1_opt =    failed
  **info** multiple results used in passfail
 **warning** Both end of window has same sign.

 **info** extend bisection window to (2.28084e-10,8.90836e-11)

 **warning** Both end of window has same sign.

 **info** extend bisection window to (2.97583e-10,1.95837e-11)

 **warning** Both end of window has same sign.

 **info** extend bisection window to (4.36583e-10,-1.19416e-10)

 **warning** Both end of window has same sign.

 **info** extend bisection window to (7.14583e-10,-3.97416e-10)

 **warning** Both end of window has same sign.

 **info** extend bisection window to (1.27058e-09,-9.53416e-10)

 **warning** Both end of window has same sign.

 **info** extend bisection window to (2.38258e-09,-2.06541e-09)

 **warning** Both end of window has same sign.

 **info** extend bisection window to (4.60658e-09,-4.28941e-09)

 **warning** Both end of window has same sign.

 **info** extend bisection window to (9.05458e-09,-8.73741e-09)

 **warning** Both end of window has same sign.

 **info** extend bisection window to (1.79506e-08,-1.76334e-08)

 **warning** Both end of window has same sign.

 **info** extend bisection window to (3.57426e-08,-3.54254e-08)

 **warning** Both end of window has same sign.

 **info** extend bisection window to (7.13265e-08,-7.10094e-08)

 **warning** Both end of window has same sign.

 **info** extend bisection window to (1.42494e-07,-1.42177e-07)

 **warning** Both end of window has same sign.

 **info** extend bisection window to (2.8483e-07,-2.84513e-07)

 **warning** Both end of window has same sign.

 **info** extend bisection window to (5.69502e-07,-5.69185e-07)

 **warning** Both end of window has same sign.

 **info** extend bisection window to (1.13885e-06,-1.13853e-06)

 **warning** Both end of window has same sign.

 **info** extend bisection window to (2.27753e-06,-2.27722e-06)

 **warning** Both end of window has same sign.

 **info** extend bisection window to (4.55491e-06,-4.55459e-06)

 **warning** Both end of window has same sign.

 **info** extend bisection window to (9.10966e-06,-9.10934e-06)

 **warning** Both end of window has same sign.

 **info** extend bisection window to (1.82192e-05,-1.82188e-05)

 **warning** Both end of window has same sign.

 **info** extend bisection window to (3.64381e-05,-3.64378e-05)

 **warning** Both end of window has same sign.

 setup =    failed       
 sis_passlist =    failed
 sis_fallback1_opt =    failed
  **info** multiple results used in passfail
 **warning** Both end of window has same sign.

 **info** extend bisection window to (2.17144e-10,7.21772e-11)

 **warning** Both end of window has same sign.

 **info** extend bisection window to (2.89627e-10,-3.06278e-13)

 **warning** Both end of window has same sign.

 **info** extend bisection window to (4.34594e-10,-1.45273e-10)

 **warning** Both end of window has same sign.

 **info** extend bisection window to (7.24528e-10,-4.35207e-10)

 **warning** Both end of window has same sign.

 **info** extend bisection window to (1.3044e-09,-1.01507e-09)

 **warning** Both end of window has same sign.

 **info** extend bisection window to (2.46413e-09,-2.17481e-09)

 **warning** Both end of window has same sign.

 **info** extend bisection window to (4.7836e-09,-4.49428e-09)

 **warning** Both end of window has same sign.

 **info** extend bisection window to (9.42254e-09,-9.13322e-09)

 **warning** Both end of window has same sign.

 **info** extend bisection window to (1.87004e-08,-1.84111e-08)

 **warning** Both end of window has same sign.

 **info** extend bisection window to (3.72562e-08,-3.69669e-08)

 **warning** Both end of window has same sign.

 **info** extend bisection window to (7.43677e-08,-7.40784e-08)

 **warning** Both end of window has same sign.

 **info** extend bisection window to (1.48591e-07,-1.48301e-07)

 **warning** Both end of window has same sign.

 **info** extend bisection window to (2.97037e-07,-2.96748e-07)

 **warning** Both end of window has same sign.

 **info** extend bisection window to (5.93929e-07,-5.9364e-07)

 **warning** Both end of window has same sign.

 **info** extend bisection window to (1.18771e-06,-1.18742e-06)

 **warning** Both end of window has same sign.

 **info** extend bisection window to (2.37528e-06,-2.37499e-06)

 **warning** Both end of window has same sign.

 **info** extend bisection window to (4.75042e-06,-4.75013e-06)

 **warning** Both end of window has same sign.

 **info** extend bisection window to (9.50069e-06,-9.50041e-06)

 **warning** Both end of window has same sign.

 **info** extend bisection window to (1.90012e-05,-1.9001e-05)

 **warning** Both end of window has same sign.

 **info** extend bisection window to (3.80023e-05,-3.80021e-05)

 **warning** Both end of window has same sign.

 setup =    failed       
 sis_passlist =    failed
 sis_fallback1_opt =    failed
  **info** multiple results used in passfail
 **warning** Both end of window has same sign.

 **info** extend bisection window to (1.96254e-10,3.98918e-11)

 **warning** Both end of window has same sign.

 **info** extend bisection window to (2.74434e-10,-3.8289e-11)

 **warning** Both end of window has same sign.

 **info** extend bisection window to (4.30796e-10,-1.94651e-10)

 **warning** Both end of window has same sign.

 **info** extend bisection window to (7.4352e-10,-5.07374e-10)

 **warning** Both end of window has same sign.

 **info** extend bisection window to (1.36897e-09,-1.13282e-09)

 **warning** Both end of window has same sign.

 **info** extend bisection window to (2.61986e-09,-2.38371e-09)

 **warning** Both end of window has same sign.

 **info** extend bisection window to (5.12165e-09,-4.8855e-09)

 **warning** Both end of window has same sign.

 **info** extend bisection window to (1.01252e-08,-9.88908e-09)

 **warning** Both end of window has same sign.

 **info** extend bisection window to (2.01324e-08,-1.98962e-08)

 **warning** Both end of window has same sign.

 **info** extend bisection window to (4.01467e-08,-3.99105e-08)

 **warning** Both end of window has same sign.

 **info** extend bisection window to (8.01753e-08,-7.99391e-08)

 **warning** Both end of window has same sign.

 **info** extend bisection window to (1.60232e-07,-1.59996e-07)

 **warning** Both end of window has same sign.

 **info** extend bisection window to (3.20347e-07,-3.20111e-07)

 **warning** Both end of window has same sign.

 **info** extend bisection window to (6.40576e-07,-6.4034e-07)

 **warning** Both end of window has same sign.

 **info** extend bisection window to (1.28103e-06,-1.2808e-06)

 **warning** Both end of window has same sign.

 **info** extend bisection window to (2.56195e-06,-2.56171e-06)

 **warning** Both end of window has same sign.

 **info** extend bisection window to (5.12378e-06,-5.12354e-06)

 **warning** Both end of window has same sign.

 **info** extend bisection window to (1.02474e-05,-1.02472e-05)

 **warning** Both end of window has same sign.

 **info** extend bisection window to (2.04948e-05,-2.04945e-05)

 **warning** Both end of window has same sign.

 **info** extend bisection window to (4.09894e-05,-4.09892e-05)

 **warning** Both end of window has same sign.

 setup =    failed       
 sis_passlist =    failed
 sis_fallback1_opt =    failed
  **info** multiple results used in passfail
 **warning** Both end of window has same sign.

 **info** extend bisection window to (1.63707e-10,-1.04072e-11)

 **warning** Both end of window has same sign.

 **info** extend bisection window to (2.50764e-10,-9.74643e-11)

 **warning** Both end of window has same sign.

 **info** extend bisection window to (4.24879e-10,-2.71579e-10)

 **warning** Both end of window has same sign.

 **info** extend bisection window to (7.73107e-10,-6.19807e-10)

 **warning** Both end of window has same sign.

 **info** extend bisection window to (1.46956e-09,-1.31626e-09)

 **warning** Both end of window has same sign.

 **info** extend bisection window to (2.86248e-09,-2.70918e-09)

 **warning** Both end of window has same sign.

 **info** extend bisection window to (5.64831e-09,-5.49501e-09)

 **warning** Both end of window has same sign.

 **info** extend bisection window to (1.122e-08,-1.10667e-08)

 **warning** Both end of window has same sign.

 **info** extend bisection window to (2.23633e-08,-2.221e-08)

 **warning** Both end of window has same sign.

 **info** extend bisection window to (4.46499e-08,-4.44966e-08)

 **warning** Both end of window has same sign.

 **info** extend bisection window to (8.92232e-08,-8.90699e-08)

 **warning** Both end of window has same sign.

 **info** extend bisection window to (1.7837e-07,-1.78216e-07)

 **warning** Both end of window has same sign.

 **info** extend bisection window to (3.56663e-07,-3.56509e-07)

 **warning** Both end of window has same sign.

 **info** extend bisection window to (7.13249e-07,-7.13096e-07)

 **warning** Both end of window has same sign.

 **info** extend bisection window to (1.42642e-06,-1.42627e-06)

 **warning** Both end of window has same sign.

 **info** extend bisection window to (2.85277e-06,-2.85261e-06)

 **warning** Both end of window has same sign.

 **info** extend bisection window to (5.70545e-06,-5.7053e-06)

 **warning** Both end of window has same sign.

 **info** extend bisection window to (1.14108e-05,-1.14107e-05)

 **warning** Both end of window has same sign.

 **info** extend bisection window to (2.28216e-05,-2.28214e-05)

 **warning** Both end of window has same sign.

 **info** extend bisection window to (4.56431e-05,-4.56429e-05)

 **warning** Both end of window has same sign.

 setup =    failed       
 sis_passlist =    failed
 sis_fallback1_opt =    failed
  **info** multiple results used in passfail
 **warning** Both end of window has same sign.

 **info** extend bisection window to (1.18041e-10,-8.09825e-11)

 **warning** Both end of window has same sign.

 **info** extend bisection window to (2.17552e-10,-1.80494e-10)

 **warning** Both end of window has same sign.

 **info** extend bisection window to (4.16576e-10,-3.79517e-10)

 **warning** Both end of window has same sign.

 **info** extend bisection window to (8.14622e-10,-7.77564e-10)

 **warning** Both end of window has same sign.

 **info** extend bisection window to (1.61071e-09,-1.57366e-09)

 **warning** Both end of window has same sign.

 **info** extend bisection window to (3.2029e-09,-3.16584e-09)

 **warning** Both end of window has same sign.

 **info** extend bisection window to (6.38727e-09,-6.35021e-09)

 **warning** Both end of window has same sign.

 **info** extend bisection window to (1.2756e-08,-1.2719e-08)

 **warning** Both end of window has same sign.

 **info** extend bisection window to (2.54935e-08,-2.54564e-08)

 **warning** Both end of window has same sign.

 **info** extend bisection window to (5.09685e-08,-5.09314e-08)

 **warning** Both end of window has same sign.

 **info** extend bisection window to (1.01918e-07,-1.01881e-07)

 **warning** Both end of window has same sign.

 **info** extend bisection window to (2.03818e-07,-2.03781e-07)

 **warning** Both end of window has same sign.

 **info** extend bisection window to (4.07618e-07,-4.07581e-07)

 **warning** Both end of window has same sign.

 **info** extend bisection window to (8.15218e-07,-8.15181e-07)

 **warning** Both end of window has same sign.

 **info** extend bisection window to (1.63042e-06,-1.63038e-06)

 **warning** Both end of window has same sign.

 **info** extend bisection window to (3.26082e-06,-3.26078e-06)

 **warning** Both end of window has same sign.

 **info** extend bisection window to (6.52161e-06,-6.52157e-06)

 **warning** Both end of window has same sign.

 **info** extend bisection window to (1.30432e-05,-1.30432e-05)

 **warning** Both end of window has same sign.

 **info** extend bisection window to (2.60864e-05,-2.60864e-05)

 **warning** Both end of window has same sign.

 **info** extend bisection window to (5.21728e-05,-5.21727e-05)

 **warning** Both end of window has same sign.

 setup =    failed       
 sis_passlist =    failed
 sis_fallback1_opt =    failed
  **info** multiple results used in passfail
 **warning** Both end of window has same sign.

 **info** extend bisection window to (5.795e-11,-1.7385e-10)

 **warning** Both end of window has same sign.

 **info** extend bisection window to (1.7385e-10,-2.8975e-10)

 **warning** Both end of window has same sign.

 **info** extend bisection window to (4.0565e-10,-5.2155e-10)

 **warning** Both end of window has same sign.

 **info** extend bisection window to (8.6925e-10,-9.8515e-10)

 **warning** Both end of window has same sign.

 **info** extend bisection window to (1.79645e-09,-1.91235e-09)

 **warning** Both end of window has same sign.

 **info** extend bisection window to (3.65085e-09,-3.76675e-09)

 **warning** Both end of window has same sign.

 **info** extend bisection window to (7.35965e-09,-7.47555e-09)

 **warning** Both end of window has same sign.

 **info** extend bisection window to (1.47772e-08,-1.48931e-08)

 **warning** Both end of window has same sign.

 **info** extend bisection window to (2.96124e-08,-2.97283e-08)

 **warning** Both end of window has same sign.

 **info** extend bisection window to (5.92828e-08,-5.93987e-08)

 **warning** Both end of window has same sign.

 **info** extend bisection window to (1.18624e-07,-1.1874e-07)

 **warning** Both end of window has same sign.

 **info** extend bisection window to (2.37305e-07,-2.37421e-07)

 **warning** Both end of window has same sign.

 **info** extend bisection window to (4.74668e-07,-4.74784e-07)

 **warning** Both end of window has same sign.

 **info** extend bisection window to (9.49395e-07,-9.49511e-07)

 **warning** Both end of window has same sign.

 **info** extend bisection window to (1.89885e-06,-1.89896e-06)

 **warning** Both end of window has same sign.

 **info** extend bisection window to (3.79775e-06,-3.79787e-06)

 **warning** Both end of window has same sign.

 **info** extend bisection window to (7.59556e-06,-7.59568e-06)

 **warning** Both end of window has same sign.

 **info** extend bisection window to (1.51912e-05,-1.51913e-05)

 **warning** Both end of window has same sign.

 **info** extend bisection window to (3.03824e-05,-3.03825e-05)

 **warning** Both end of window has same sign.

 **info** extend bisection window to (6.07649e-05,-6.0765e-05)

 **warning** Both end of window has same sign.

 setup =    failed       
 sis_passlist =    failed
 sis_fallback1_opt =    failed
 Warning:Failed Transient Data Sweep Occurs 48 times.
 Failed Transient Data Sweep Index: data = arc_data( 1 2 3 4 5 6 7 8 9 10 11 12 13 14 15 16 17 18 19 20 21 22 23 24 25 26 27 28 29 30 31 32 33 34 35 36 37 38 39 40 41 42 43 44 45 46 47 48 )

          ***** job aborted
1****** HSPICE -- O-2018.09-2 linux64 (Oct 18 2018) ******                      
 ******  
 .title setup_hbm__d__lh__clk__lh__acq_1

 ****** job statistics summary tnom=  25.000 temp=  25.000 ******
  
 ******  Machine Information  ******
 CPU:
 model name	: AMD EPYC 7F32 8-Core Processor
 cpu MHz	: 3692.894
  
 OS:
 Linux version 4.18.0-553.46.1.el8_10.x86_64 (mockbuild@x86-64-02.build.eng.rdu2.redhat.com) (gcc version 8.5.0 20210514 (Red Hat 8.5.0-24) (GCC)) #1 SMP Sat Mar 15 01:37:33 EDT 2025


  ******  HSPICE Threads Information  ******

  Command Line Threads Count :     1
  Available CPU Count        :    32
  Actual Threads Count       :     1


  ******  Circuit Statistics  ******
  # nodes       =     501 # elements   =    1327
  # resistors   =     425 # capacitors =     860 # inductors   =       0
  # mutual_inds =       0 # vccs       =       0 # vcvs        =       0
  # cccs        =       0 # ccvs       =       0 # volt_srcs   =      11
  # curr_srcs   =       0 # diodes     =       1 # bjts        =       0
  # jfets       =       0 # mosfets    =      30 # U elements  =       0
  # T elements  =       0 # W elements =       0 # B elements  =       0
  # S elements  =       0 # P elements =       0 # va device   =       0
  # vector_srcs =       0 # N elements =       0


  ******  Runtime Statistics (seconds)  ******

  analysis           time    # points   tot. iter  conv.iter
  op point           0.21           1         392
  transient         46.80      297479      511881      217369 rev=     23897
  readin             1.10
  errchk             0.08
  setup              0.01
  output             0.00


           peak memory used        404.89 megabytes
           total cpu time           48.96 seconds
           total elapsed time       55.74 seconds
           job started at     15:12:33 05/08/2025
           job ended   at     15:13:29 05/08/2025


