$DATA1 SOURCE='HSPICE' VERSION='O-2018.09-2 linux64' PARAM_COUNT=1
$OPTION MEASFORM=1
.TITLE '.title delay__ina__lh__out__hl__acq_1'
index cin__ina__lh_trig cin__ina__lh_targ cin__ina__lh_q tin__ina__lh_trig tin__ina__lh_targ tout__out__hl_trig tout__out__hl_targ cap_energy__out__hl_vp0 cap_energy__out__hl_vp1 cap_energy__out__hl_vn0 cap_energy__out__hl_vn1 delay__ina__lh__out__hl_trig delay__ina__lh__out__hl_targ energy1__ina__lh__out__hl__vdd_vdd_harness_v energy1__ina__lh__out__hl__vdd_vdd_harness_q energy1__ina__lh__out__hl__vss_vss_harness_v energy1__ina__lh__out__hl__vss_vss_harness_q energy__ina__lh__out__hl_vdd_harness_v energy__ina__lh__out__hl_vdd_harness_q leakage_power1__vdd_vdd_harness_v leakage_power1__vdd_vdd_harness_i leakage_power1__vss_vss_harness_v leakage_power1__vss_vss_harness_i leakage_power2__vdd_vdd_harness_v leakage_power2__vdd_vdd_harness_i leakage_power2__vss_vss_harness_v leakage_power2__vss_vss_harness_i temper alter#
   1.0000000  1.031250e-11  1.593750e-11 -1.681776e-15  1.062500e-11  1.562500e-11    failed    failed    1.1999997    1.2000084    0.    0.  1.312500e-11    failed    1.2000000  1.353287e-15    0.  3.349350e-16    1.2000000  1.353287e-15    1.2000000  1.684332e-07    0.  1.070119e-07    1.2000000 -1.102496e-07    0. -7.124044e-08   25.0000000 1
   2.0000000  1.031250e-11  1.593750e-11 -1.687126e-15  1.062500e-11  1.562500e-11    failed    failed    1.1999997    1.2000064    0.    0.  1.312500e-11    failed    1.2000000  1.353151e-15    0.  3.349492e-16    1.2000000  1.353151e-15    1.2000000 -3.775882e-08    0. -3.573054e-08    1.2000000 -6.257072e-08    0. -5.835407e-08   25.0000000 1
   3.0000000  1.031250e-11  1.593750e-11 -1.692008e-15  1.062500e-11  1.562500e-11    failed    failed    1.1999997    1.2000065    0.    0.  1.312500e-11    failed    1.2000000  1.352973e-15    0.  3.349679e-16    1.2000000  1.352973e-15    1.2000000  7.067553e-08    0.  7.909287e-08    1.2000000 -3.559375e-08    0. -4.194296e-08   25.0000000 1
   4.0000000  1.031250e-11  1.593750e-11 -1.693830e-15  1.062500e-11  1.562500e-11    failed    failed    1.1999997    1.2000064    0.    0.  1.312500e-11    failed    1.2000000  1.352796e-15    0.  3.349820e-16    1.2000000  1.352796e-15    1.2000000  4.008502e-08    0.  4.711125e-08    1.2000000  5.283357e-08    0.  6.210376e-08   25.0000000 1
   5.0000000  1.031250e-11  1.593750e-11 -1.694562e-15  1.062500e-11  1.562500e-11    failed    failed    1.1999997    1.2000069    0.    0.  1.312500e-11    failed    1.2000000  1.352541e-15    0.  3.349720e-16    1.2000000  1.352541e-15    1.2000000 -3.536174e-09    0. -6.292327e-09    1.2000000 -7.553492e-08    0. -9.442336e-08   25.0000000 1
   6.0000000  1.031250e-11  1.593750e-11 -1.694906e-15  1.062500e-11  1.562500e-11    failed    failed    1.1999997    1.2000195    0.    0.  1.312500e-11    failed    1.2000000  1.350686e-15    0.  3.349785e-16    1.2000000  1.350686e-15    1.2000000 -1.429734e-08    0. -2.587297e-08    1.2000000 -5.707394e-08    0. -8.097510e-08   25.0000000 1
   7.0000000  1.031250e-11  1.593750e-11 -1.695088e-15  1.062500e-11  1.562500e-11    failed    failed    1.1999997    1.2000602    0.    0.  1.312500e-11    failed    1.2000000  1.342005e-15    0.  3.350009e-16    1.2000000  1.342005e-15    1.2000000 -9.322482e-09    0. -3.571071e-08    1.2000000 -3.747482e-08    0. -7.274199e-08   25.0000000 1
   8.0000000  1.066664e-11  2.266624e-11 -1.689101e-15  1.133329e-11  2.199959e-11    failed    failed    1.1999997    1.2000026    0.    0.  1.666644e-11    failed    1.2000000  1.367310e-15    0.  3.354841e-16    1.2000000  1.367310e-15    1.2000000  5.429081e-08    0.  3.474999e-08    1.2000000 -1.827352e-08    0. -1.204873e-08   25.0000000 1
   9.0000000  1.066664e-11  2.266624e-11 -1.692114e-15  1.133329e-11  2.199959e-11    failed    failed    1.1999997    1.2000024    0.    0.  1.666644e-11    failed    1.2000000  1.367083e-15    0.  3.354458e-16    1.2000000  1.367083e-15    1.2000000  1.911404e-08    0.  1.647226e-08    1.2000000 -2.612138e-08    0. -2.346220e-08   25.0000000 1
  10.0000000  1.066664e-11  2.266624e-11 -1.695901e-15  1.133329e-11  2.199959e-11    failed    failed    1.1999997    1.2000028    0.    0.  1.666644e-11    failed    1.2000000  1.366933e-15    0.  3.354263e-16    1.2000000  1.366933e-15    1.2000000 -2.028486e-08    0. -2.184488e-08    1.2000000  1.326362e-08    0.  1.356159e-08   25.0000000 1
  11.0000000  1.066664e-11  2.266624e-11 -1.697549e-15  1.133329e-11  2.199959e-11    failed    failed    1.1999997    1.2000028    0.    0.  1.666644e-11    failed    1.2000000  1.366838e-15    0.  3.354194e-16    1.2000000  1.366838e-15    1.2000000 -2.214393e-08    0. -2.489203e-08    1.2000000  7.187350e-09    0.  7.468126e-09   25.0000000 1
  12.0000000  1.066664e-11  2.266624e-11 -1.698246e-15  1.133329e-11  2.199959e-11    failed    failed    1.1999997    1.2000030    0.    0.  1.666644e-11    failed    1.2000000  1.366698e-15    0.  3.354130e-16    1.2000000  1.366698e-15    1.2000000  5.187918e-09    0.  5.033979e-09    1.2000000 -2.676680e-08    0. -3.075667e-08   25.0000000 1
  13.0000000  1.066664e-11  2.266624e-11 -1.698580e-15  1.133329e-11  2.199959e-11    failed    failed    1.1999997    1.2000154    0.    0.  1.666644e-11    failed    1.2000000  1.365045e-15    0.  3.354185e-16    1.2000000  1.365045e-15    1.2000000 -1.322914e-08    0. -2.117358e-08    1.2000000 -1.840583e-09    0. -1.041843e-08   25.0000000 1
  14.0000000  1.066664e-11  2.266624e-11 -1.698760e-15  1.133329e-11  2.199959e-11    failed    failed    1.1999997    1.2000562    0.    0.  1.666644e-11    failed    1.2000000  1.356605e-15    0.  3.354436e-16    1.2000000  1.356605e-15    1.2000000 -4.999739e-09    0. -2.919220e-08    1.2000000  2.204386e-08    0. -3.480453e-09   25.0000000 1
  15.0000000  1.190977e-11  4.628558e-11 -1.699087e-15  1.381953e-11  4.437581e-11    failed    failed    1.1999997    1.2000030    0.    0.  2.909767e-11    failed    1.2000000  1.387562e-15    0.  3.353242e-16    1.2000000  1.387562e-15    1.2000000 -1.243794e-08    0. -2.530729e-08    1.2000000 -2.671581e-10    0. -6.575728e-10   25.0000000 1
  16.0000000  1.190977e-11  4.628558e-11 -1.699363e-15  1.381953e-11  4.437581e-11    failed    failed    1.1999997    1.2000023    0.    0.  2.909767e-11    failed    1.2000000  1.387553e-15    0.  3.353633e-16    1.2000000  1.387553e-15    1.2000000  2.266393e-08    0.  3.971936e-09    1.2000000  1.635645e-10    0.  4.939574e-11   25.0000000 1
  17.0000000  1.190977e-11  4.628558e-11 -1.701052e-15  1.381953e-11  4.437581e-11    failed    failed    1.1999997    1.2000011    0.    0.  2.909767e-11    failed    1.2000000  1.387443e-15    0.  3.353418e-16    1.2000000  1.387443e-15    1.2000000  5.709794e-09    0.  1.435797e-09    1.2000000 -3.901456e-08    0. -9.978375e-09   25.0000000 1
  18.0000000  1.190977e-11  4.628558e-11 -1.702250e-15  1.381953e-11  4.437581e-11    failed    failed    1.1999997    1.2000004    0.    0.  2.909767e-11    failed    1.2000000  1.387404e-15    0.  3.353404e-16    1.2000000  1.387404e-15    1.2000000  1.708158e-08    0.  4.197304e-09    1.2000000  2.562734e-08    0.  6.171580e-09   25.0000000 1
  19.0000000  1.190977e-11  4.628558e-11 -1.702850e-15  1.381953e-11  4.437581e-11    failed    failed    1.1999997    1.2000011    0.    0.  2.909767e-11    failed    1.2000000  1.387317e-15    0.  3.353279e-16    1.2000000  1.387317e-15    1.2000000  4.262149e-09    0.  9.056536e-10    1.2000000 -4.057903e-08    0. -9.383296e-09   25.0000000 1
  20.0000000  1.190977e-11  4.628558e-11 -1.703159e-15  1.381953e-11  4.437581e-11    failed    failed    1.1999997    1.2000143    0.    0.  2.909767e-11    failed    1.2000000  1.385663e-15    0.  3.353330e-16    1.2000000  1.385663e-15    1.2000000  9.816441e-09    0.  9.509688e-10    1.2000000 -3.411308e-08    0. -9.256089e-09   25.0000000 1
  21.0000000  1.190977e-11  4.628558e-11 -1.703331e-15  1.381953e-11  4.437581e-11    failed    failed    1.1999997    1.2000560    0.    0.  2.909767e-11    failed    1.2000000  1.377112e-15    0.  3.353541e-16    1.2000000  1.377112e-15    1.2000000  2.547335e-08    0.  9.478512e-10    1.2000000 -1.656540e-08    0. -9.213458e-09   25.0000000 1
  22.0000000  1.428369e-11  9.139011e-11 -1.704501e-15  1.856738e-11  8.710642e-11    failed    failed    1.1999997    1.2000002    0.    0.  5.283690e-11    failed    1.2000000  1.398907e-15    0.  3.350996e-16    1.2000000  1.398907e-15    1.2000000  4.952744e-08    0.  3.172691e-08    1.2000000 -5.529308e-08    0. -3.531531e-08   25.0000000 1
  23.0000000  1.428369e-11  9.139011e-11 -1.704335e-15  1.856738e-11  8.710642e-11    failed    failed    1.1999997    1.1999996    0.    0.  5.283690e-11    failed    1.2000000  1.398916e-15    0.  3.351133e-16    1.2000000  1.398916e-15    1.2000000  5.164155e-08    0.  2.698419e-08    1.2000000 -2.753003e-08    0. -1.432092e-08   25.0000000 1
  24.0000000  1.428369e-11  9.139011e-11 -1.704676e-15  1.856738e-11  8.710642e-11    failed    failed    1.1999997    1.1999999    0.    0.  5.283690e-11    failed    1.2000000  1.398898e-15    0.  3.351190e-16    1.2000000  1.398898e-15    1.2000000 -1.935314e-08    0. -8.388213e-09    1.2000000 -4.043146e-08    0. -1.755223e-08   25.0000000 1
  25.0000000  1.428369e-11  9.139011e-11 -1.705317e-15  1.856738e-11  8.710642e-11    failed    failed    1.1999997    1.2000004    0.    0.  5.283690e-11    failed    1.2000000  1.398899e-15    0.  3.351309e-16    1.2000000  1.398899e-15    1.2000000 -4.771231e-08    0. -1.946430e-08    1.2000000  1.242632e-08    0.  5.130454e-09   25.0000000 1
  26.0000000  1.428369e-11  9.139011e-11 -1.705758e-15  1.856738e-11  8.710642e-11    failed    failed    1.1999997    1.2000009    0.    0.  5.283690e-11    failed    1.2000000  1.398837e-15    0.  3.351307e-16    1.2000000  1.398837e-15    1.2000000 -4.695704e-08    0. -1.879172e-08    1.2000000  1.187214e-08    0.  4.599123e-09   25.0000000 1
  27.0000000  1.428369e-11  9.139011e-11 -1.706017e-15  1.856738e-11  8.710642e-11    failed    failed    1.1999997    1.2000154    0.    0.  5.283690e-11    failed    1.2000000  1.397034e-15    0.  3.351385e-16    1.2000000  1.397034e-15    1.2000000 -4.088340e-08    0. -1.851968e-08    1.2000000  1.906347e-08    0.  4.345470e-09   25.0000000 1
  28.0000000  1.428369e-11  9.139011e-11 -1.706171e-15  1.856738e-11  8.710642e-11    failed    failed    1.1999997    1.2000588    0.    0.  5.283690e-11    failed    1.2000000  1.388112e-15    0.  3.351615e-16    1.2000000  1.388112e-15    1.2000000 -2.465090e-08    0. -1.840125e-08    1.2000000  3.728841e-08    0.  4.191486e-09   25.0000000 1
  29.0000000  1.798214e-11  1.616608e-10 -1.705930e-15  2.596429e-11  1.536786e-10    failed    failed    1.1999997    1.1999994    0.    0.  8.982145e-11    failed    1.2000000  1.405936e-15    0.  3.353910e-16    1.2000000  1.405936e-15    1.2000000  1.886132e-08    0.  1.169581e-08    1.2000000  7.581306e-08    0.  4.682037e-08   25.0000000 1
  30.0000000  1.798214e-11  1.616608e-10 -1.705653e-15  2.596429e-11  1.536786e-10    failed    failed    1.1999997    1.2000001    0.    0.  8.982145e-11    failed    1.2000000  1.405833e-15    0.  3.353527e-16    1.2000000  1.405833e-15    1.2000000  2.420941e-08    0.  1.411547e-08    1.2000000  6.971314e-08    0.  4.047873e-08   25.0000000 1
  31.0000000  1.798214e-11  1.616608e-10 -1.705582e-15  2.596429e-11  1.536786e-10    failed    failed    1.1999997    1.2000000    0.    0.  8.982145e-11    failed    1.2000000  1.405765e-15    0.  3.353207e-16    1.2000000  1.405765e-15    1.2000000  8.106901e-08    0.  4.465785e-08    1.2000000 -3.572337e-09    0. -1.928524e-09   25.0000000 1
  32.0000000  1.798214e-11  1.616608e-10 -1.705819e-15  2.596429e-11  1.536786e-10    failed    failed    1.1999997    1.2000001    0.    0.  8.982145e-11    failed    1.2000000  1.405743e-15    0.  3.353171e-16    1.2000000  1.405743e-15    1.2000000  7.995398e-08    0.  4.326599e-08    1.2000000 -2.706894e-09    0. -1.426957e-09   25.0000000 1
  33.0000000  1.798214e-11  1.616608e-10 -1.706093e-15  2.596429e-11  1.536786e-10    failed    failed    1.1999997    1.2000008    0.    0.  8.982145e-11    failed    1.2000000  1.405669e-15    0.  3.353162e-16    1.2000000  1.405669e-15    1.2000000  7.995646e-08    0.  4.274403e-08    1.2000000 -1.720917e-09    0. -1.229911e-09   25.0000000 1
  34.0000000  1.798214e-11  1.616608e-10 -1.706291e-15  2.596429e-11  1.536786e-10    failed    failed    1.1999997    1.2000172    0.    0.  8.982145e-11    failed    1.2000000  1.403644e-15    0.  3.353243e-16    1.2000000  1.403644e-15    1.2000000  8.639115e-08    0.  4.247843e-08    1.2000000  7.156106e-09    0. -1.175352e-09   25.0000000 1
  35.0000000  1.798214e-11  1.616608e-10 -1.706421e-15  2.596429e-11  1.536786e-10    failed    failed    1.1999997    1.2000634    0.    0.  8.982145e-11    failed    1.2000000  1.394098e-15    0.  3.353485e-16    1.2000000  1.394098e-15    1.2000000  1.033842e-07    0.  4.231474e-08    1.2000000  2.676200e-08    0. -1.170440e-09   25.0000000 1
  36.0000000  2.317151e-11  2.602586e-10 -1.707499e-15  3.634301e-11  2.470871e-10    failed    failed    1.1999997    1.1999999    0.    0.  1.417151e-10    failed    1.2000000  1.412883e-15    0.  3.362310e-16    1.2000000  1.412883e-15    1.2000000 -6.588352e-08    0. -3.729936e-08    1.2000000 -7.670439e-09    0. -4.293865e-09   25.0000000 1
  37.0000000  2.317151e-11  2.602586e-10 -1.707355e-15  3.634301e-11  2.470871e-10    failed    failed    1.1999997    1.2000000    0.    0.  1.417151e-10    failed    1.2000000  1.412696e-15    0.  3.361760e-16    1.2000000  1.412696e-15    1.2000000 -6.336727e-08    0. -3.511978e-08    1.2000000  5.450875e-10    0.  3.570579e-10   25.0000000 1
  38.0000000  2.317151e-11  2.602586e-10 -1.707210e-15  3.634301e-11  2.470871e-10    failed    failed    1.1999997    1.2000001    0.    0.  1.417151e-10    failed    1.2000000  1.412549e-15    0.  3.361317e-16    1.2000000  1.412549e-15    1.2000000 -4.990879e-08    0. -2.703740e-08    1.2000000  3.797282e-08    0.  2.066686e-08   25.0000000 1
  39.0000000  2.317151e-11  2.602586e-10 -1.707244e-15  3.634301e-11  2.470871e-10    failed    failed    1.1999997    1.2000001    0.    0.  1.417151e-10    failed    1.2000000  1.412487e-15    0.  3.361157e-16    1.2000000  1.412487e-15    1.2000000 -3.954447e-08    0. -2.122638e-08    1.2000000  6.186763e-08    0.  3.334797e-08   25.0000000 1
  40.0000000  2.317151e-11  2.602586e-10 -1.707381e-15  3.634301e-11  2.470871e-10    failed    failed    1.1999997    1.2000011    0.    0.  1.417151e-10    failed    1.2000000  1.412375e-15    0.  3.361101e-16    1.2000000  1.412375e-15    1.2000000 -3.887037e-08    0. -2.105942e-08    1.2000000  6.240905e-08    0.  3.316322e-08   25.0000000 1
  41.0000000  2.317151e-11  2.602586e-10 -1.707516e-15  3.634301e-11  2.470871e-10    failed    failed    1.1999997    1.2000205    0.    0.  1.417151e-10    failed    1.2000000  1.409964e-15    0.  3.361175e-16    1.2000000  1.409964e-15    1.2000000 -3.113514e-08    0. -2.101383e-08    1.2000000  7.211056e-08    0.  3.303689e-08   25.0000000 1
  42.0000000  2.317151e-11  2.602586e-10 -1.707619e-15  3.634301e-11  2.470871e-10    failed    failed    1.1999997    1.2000707    0.    0.  1.417151e-10    failed    1.2000000  1.399488e-15    0.  3.361428e-16    1.2000000  1.399488e-15    1.2000000 -1.260189e-08    0. -2.101536e-08    1.2000000  9.306795e-08    0.  3.296598e-08   25.0000000 1
  43.0000000  3.000000e-11  3.900000e-10 -1.711398e-15  5.000000e-11  3.700000e-10    failed    failed    1.1999997    1.2000006    0.    0.  2.100000e-10    failed    1.2000000  1.414858e-15    0.  3.356555e-16    1.2000000  1.414858e-15    1.2000000  3.023767e-08    0.  1.378338e-08    1.2000000 -7.291956e-08    0. -3.277349e-08   25.0000000 1
  44.0000000  3.000000e-11  3.900000e-10 -1.711335e-15  5.000000e-11  3.700000e-10    failed    failed    1.1999997    1.2000002    0.    0.  2.100000e-10    failed    1.2000000  1.414740e-15    0.  3.356249e-16    1.2000000  1.414740e-15    1.2000000  6.035368e-09    0.  2.905141e-09    1.2000000 -6.880519e-08    0. -3.116528e-08   25.0000000 1
  45.0000000  3.000000e-11  3.900000e-10 -1.711249e-15  5.000000e-11  3.700000e-10    failed    failed    1.1999997    1.2000001    0.    0.  2.100000e-10    failed    1.2000000  1.414656e-15    0.  3.356003e-16    1.2000000  1.414656e-15    1.2000000 -4.572101e-08    0. -2.025109e-08    1.2000000 -2.761947e-08    0. -1.229794e-08   25.0000000 1
  46.0000000  3.000000e-11  3.900000e-10 -1.711230e-15  5.000000e-11  3.700000e-10    failed    failed    1.1999997    1.2000001    0.    0.  2.100000e-10    failed    1.2000000  1.414619e-15    0.  3.355917e-16    1.2000000  1.414619e-15    1.2000000 -4.498388e-08    0. -1.980878e-08    1.2000000 -2.801355e-08    0. -1.240153e-08   25.0000000 1
  47.0000000  3.000000e-11  3.900000e-10 -1.711285e-15  5.000000e-11  3.700000e-10    failed    failed    1.1999997    1.2000017    0.    0.  2.100000e-10    failed    1.2000000  1.414477e-15    0.  3.355890e-16    1.2000000  1.414477e-15    1.2000000 -4.392511e-08    0. -1.961072e-08    1.2000000 -2.680824e-08    0. -1.246648e-08   25.0000000 1
  48.0000000  3.000000e-11  3.900000e-10 -1.711369e-15  5.000000e-11  3.700000e-10    failed    failed    1.1999997    1.2000260    0.    0.  2.100000e-10    failed    1.2000000  1.411450e-15    0.  3.356005e-16    1.2000000  1.411450e-15    1.2000000 -3.415853e-08    0. -1.955108e-08    1.2000000 -1.416727e-08    0. -1.256433e-08   25.0000000 1
  49.0000000  3.000000e-11  3.900000e-10 -1.711444e-15  5.000000e-11  3.700000e-10    failed    failed    1.1999997    1.2000819    0.    0.  2.100000e-10    failed    1.2000000  1.399580e-15    0.  3.356292e-16    1.2000000  1.399580e-15    1.2000000 -1.354653e-08    0. -1.954774e-08    1.2000000  8.996488e-09    0. -1.260997e-08   25.0000000 1
