$DATA1 SOURCE='HSPICE' VERSION='O-2018.09-2 linux64' PARAM_COUNT=1
.TITLE ''
 d                tclktoq          tsetup           tdelay          
                  temper           alter#          
  9.760e-10        1.201e-09        1.500e-12        1.203e-09      
                    25.0000        1               
  9.670e-10        1.201e-09        1.050e-11        1.212e-09      
                    25.0000        1               
  9.580e-10        1.201e-09        1.950e-11        1.221e-09      
                    25.0000        1               
  9.490e-10        1.201e-09        2.850e-11        1.230e-09      
                    25.0000        1               
  9.400e-10        1.201e-09        3.750e-11        1.239e-09      
                    25.0000        1               
  9.310e-10        1.201e-09        4.650e-11        1.248e-09      
                    25.0000        1               
  9.220e-10        1.201e-09        5.550e-11        1.257e-09      
                    25.0000        1               
  9.130e-10        1.201e-09        6.450e-11        1.266e-09      
                    25.0000        1               
  9.040e-10        1.201e-09        7.350e-11        1.275e-09      
                    25.0000        1               
  8.950e-10        1.201e-09        8.250e-11        1.284e-09      
                    25.0000        1               
  8.860e-10        1.201e-09        9.150e-11        1.293e-09      
                    25.0000        1               
  8.770e-10        1.201e-09        1.005e-10        1.302e-09      
                    25.0000        1               
  8.680e-10        1.201e-09        1.095e-10        1.311e-09      
                    25.0000        1               
  8.590e-10        1.201e-09        1.185e-10        1.320e-09      
                    25.0000        1               
  8.500e-10        1.201e-09        1.275e-10        1.329e-09      
                    25.0000        1               
  8.410e-10        1.201e-09        1.365e-10        1.338e-09      
                    25.0000        1               
  8.320e-10        1.201e-09        1.455e-10        1.347e-09      
                    25.0000        1               
  8.230e-10        1.201e-09        1.545e-10        1.356e-09      
                    25.0000        1               
  8.140e-10        1.201e-09        1.635e-10        1.365e-09      
                    25.0000        1               
  8.050e-10        1.201e-09        1.725e-10        1.374e-09      
                    25.0000        1               
  7.960e-10        1.201e-09        1.815e-10        1.383e-09      
                    25.0000        1               
  7.870e-10        1.201e-09        1.905e-10        1.392e-09      
                    25.0000        1               
  7.780e-10        1.201e-09        1.995e-10        1.401e-09      
                    25.0000        1               
  7.690e-10        1.201e-09        2.085e-10        1.410e-09      
                    25.0000        1               
  7.600e-10        1.201e-09        2.175e-10        1.419e-09      
                    25.0000        1               
  7.510e-10        1.201e-09        2.265e-10        1.428e-09      
                    25.0000        1               
  7.420e-10        1.201e-09        2.355e-10        1.437e-09      
                    25.0000        1               
  7.330e-10        1.201e-09        2.445e-10        1.446e-09      
                    25.0000        1               
  7.240e-10        1.201e-09        2.535e-10        1.455e-09      
                    25.0000        1               
  7.150e-10        1.201e-09        2.625e-10        1.464e-09      
                    25.0000        1               
  7.060e-10        1.201e-09        2.715e-10        1.473e-09      
                    25.0000        1               
