$DATA1 SOURCE='HSPICE' VERSION='O-2018.09-2 linux64' PARAM_COUNT=1
$OPTION MEASFORM=1
.TITLE '.title delay__ind__lh__out__hl__acq_1'
index cin__ind__lh_trig cin__ind__lh_targ cin__ind__lh_q tin__ind__lh_trig tin__ind__lh_targ tout__out__hl_trig tout__out__hl_targ cap_energy__out__hl_vp0 cap_energy__out__hl_vp1 cap_energy__out__hl_vn0 cap_energy__out__hl_vn1 delay__ind__lh__out__hl_trig delay__ind__lh__out__hl_targ energy1__ind__lh__out__hl__vdd_vdd_harness_v energy1__ind__lh__out__hl__vdd_vdd_harness_q energy1__ind__lh__out__hl__vss_vss_harness_v energy1__ind__lh__out__hl__vss_vss_harness_q energy__ind__lh__out__hl_vdd_harness_v energy__ind__lh__out__hl_vdd_harness_q leakage_power1__vdd_vdd_harness_v leakage_power1__vdd_vdd_harness_i leakage_power1__vss_vss_harness_v leakage_power1__vss_vss_harness_i leakage_power2__vdd_vdd_harness_v leakage_power2__vdd_vdd_harness_i leakage_power2__vss_vss_harness_v leakage_power2__vss_vss_harness_i temper alter#
   1.0000000  1.031250e-11  1.593750e-11 -1.778511e-15  1.062500e-11  1.562500e-11    failed    failed    1.1999996    1.2000100    0.    0.  1.312500e-11    failed    1.2000000  1.046506e-15    0.  7.763038e-16    1.2000000  1.046506e-15    1.2000000 -1.311774e-07    0. -2.915874e-08    1.2000000 -1.073433e-07    0. -2.390249e-08   25.0000000 1
   2.0000000  1.031250e-11  1.593750e-11 -1.787034e-15  1.062500e-11  1.562500e-11    failed    failed    1.1999996    1.2000060    0.    0.  1.312500e-11    failed    1.2000000  1.049148e-15    0.  7.730014e-16    1.2000000  1.049148e-15    1.2000000 -1.337987e-07    0. -9.104141e-09    1.2000000  6.228391e-08    0.  4.357359e-09   25.0000000 1
   3.0000000  1.031250e-11  1.593750e-11 -1.804100e-15  1.062500e-11  1.562500e-11    failed    failed    1.1999996    1.2000047    0.    0.  1.312500e-11    failed    1.2000000  1.052380e-15    0.  7.732009e-16    1.2000000  1.052380e-15    1.2000000 -7.865854e-08    0.  7.152635e-09    1.2000000 -1.254962e-07    0.  1.126242e-08   25.0000000 1
   4.0000000  1.031250e-11  1.593750e-11 -1.810864e-15  1.062500e-11  1.562500e-11    failed    failed    1.1999996    1.2000044    0.    0.  1.312500e-11    failed    1.2000000  1.053345e-15    0.  7.732562e-16    1.2000000  1.053345e-15    1.2000000  9.499504e-08    0. -7.977898e-09    1.2000000 -2.017899e-07    0.  1.766905e-08   25.0000000 1
   5.0000000  1.031250e-11  1.593750e-11 -1.813590e-15  1.062500e-11  1.562500e-11    failed    failed    1.1999996    1.2000053    0.    0.  1.312500e-11    failed    1.2000000  1.053510e-15    0.  7.732887e-16    1.2000000  1.053510e-15    1.2000000  1.920406e-07    0. -1.832553e-08    1.2000000  2.741349e-08    0. -2.338880e-09   25.0000000 1
   6.0000000  1.031250e-11  1.593750e-11 -1.814872e-15  1.062500e-11  1.562500e-11    failed    failed    1.1999996    1.2000358    0.    0.  1.312500e-11    failed    1.2000000  1.049755e-15    0.  7.733217e-16    1.2000000  1.049755e-15    1.2000000  1.719822e-07    0. -1.592082e-08    1.2000000 -5.414315e-08    0.  7.269141e-09   25.0000000 1
   7.0000000  1.031250e-11  1.593750e-11 -1.815554e-15  1.062500e-11  1.562500e-11    failed    failed    1.1999996    1.2001317    0.    0.  1.312500e-11    failed    1.2000000  1.030056e-15    0.  7.733852e-16    1.2000000  1.030056e-15    1.2000000  2.044015e-07    0. -1.607695e-08    1.2000000 -2.246786e-08    0.  8.200269e-09   25.0000000 1
   8.0000000  1.066664e-11  2.266624e-11 -1.801216e-15  1.133329e-11  2.199959e-11    failed    failed    1.1999996    1.2000053    0.    0.  1.666644e-11    failed    1.2000000  1.055551e-15    0.  7.766886e-16    1.2000000  1.055551e-15    1.2000000  9.609195e-09    0. -4.018676e-10    1.2000000 -9.759948e-08    0.  6.467359e-09   25.0000000 1
   9.0000000  1.066664e-11  2.266624e-11 -1.802409e-15  1.133329e-11  2.199959e-11    failed    failed    1.1999996    1.2000029    0.    0.  1.666644e-11    failed    1.2000000  1.058607e-15    0.  7.741554e-16    1.2000000  1.058607e-15    1.2000000 -7.673277e-09    0.  3.800474e-09    1.2000000 -8.037416e-08    0.  3.603946e-08   25.0000000 1
  10.0000000  1.066664e-11  2.266624e-11 -1.817598e-15  1.133329e-11  2.199959e-11    failed    failed    1.1999996    1.2000022    0.    0.  1.666644e-11    failed    1.2000000  1.063954e-15    0.  7.743948e-16    1.2000000  1.063954e-15    1.2000000  1.930972e-09    0. -9.536575e-10    1.2000000  7.557000e-08    0. -5.023814e-08   25.0000000 1
  11.0000000  1.066664e-11  2.266624e-11 -1.824519e-15  1.133329e-11  2.199959e-11    failed    failed    1.1999996    1.2000019    0.    0.  1.666644e-11    failed    1.2000000  1.065810e-15    0.  7.744895e-16    1.2000000  1.065810e-15    1.2000000 -5.133629e-08    0.  3.848810e-08    1.2000000  6.226281e-08    0. -4.594240e-08   25.0000000 1
  12.0000000  1.066664e-11  2.266624e-11 -1.827441e-15  1.133329e-11  2.199959e-11    failed    failed    1.1999996    1.2000029    0.    0.  1.666644e-11    failed    1.2000000  1.066405e-15    0.  7.745168e-16    1.2000000  1.066405e-15    1.2000000 -5.807922e-08    0.  4.550250e-08    1.2000000  3.901600e-08    0. -2.908134e-08   25.0000000 1
  13.0000000  1.066664e-11  2.266624e-11 -1.828842e-15  1.133329e-11  2.199959e-11    failed    failed    1.1999996    1.2000348    0.    0.  1.666644e-11    failed    1.2000000  1.062728e-15    0.  7.744930e-16    1.2000000  1.062728e-15    1.2000000  8.417640e-08    0. -5.428317e-08    1.2000000  1.194075e-08    0.  4.709946e-09   25.0000000 1
  14.0000000  1.066664e-11  2.266624e-11 -1.829595e-15  1.133329e-11  2.199959e-11    failed    failed    1.1999996    1.2001382    0.    0.  1.666644e-11    failed    1.2000000  1.041789e-15    0.  7.745290e-16    1.2000000  1.041789e-15    1.2000000  1.231743e-07    0. -5.509342e-08    1.2000000  5.684093e-08    0.  3.642501e-09   25.0000000 1
  15.0000000  1.190977e-11  4.628558e-11 -1.820814e-15  1.381953e-11  4.437581e-11    failed    failed    1.1999996    1.1999991    0.    0.  2.909767e-11    failed    1.2000000  1.069388e-15    0.  7.746403e-16    1.2000000  1.069388e-15    1.2000000  2.015608e-08    0.  3.777916e-10    1.2000000 -5.558393e-08    0. -4.756821e-10   25.0000000 1
  16.0000000  1.190977e-11  4.628558e-11 -1.821602e-15  1.381953e-11  4.437581e-11    failed    failed    1.1999996    1.1999994    0.    0.  2.909767e-11    failed    1.2000000  1.074903e-15    0.  7.750325e-16    1.2000000  1.074903e-15    1.2000000  2.192459e-08    0. -1.672991e-08    1.2000000  7.277084e-10    0. -3.418074e-10   25.0000000 1
  17.0000000  1.190977e-11  4.628558e-11 -1.830653e-15  1.381953e-11  4.437581e-11    failed    failed    1.1999996    1.2000005    0.    0.  2.909767e-11    failed    1.2000000  1.081246e-15    0.  7.738675e-16    1.2000000  1.081246e-15    1.2000000  1.404030e-08    0. -3.259702e-08    1.2000000  1.041576e-08    0. -2.392885e-08   25.0000000 1
  18.0000000  1.190977e-11  4.628558e-11 -1.836087e-15  1.381953e-11  4.437581e-11    failed    failed    1.1999996    1.2000003    0.    0.  2.909767e-11    failed    1.2000000  1.084680e-15    0.  7.743043e-16    1.2000000  1.084680e-15    1.2000000 -4.631489e-09    0.  2.986423e-08    1.2000000  9.270448e-09    0. -6.138703e-08   25.0000000 1
  19.0000000  1.190977e-11  4.628558e-11 -1.838778e-15  1.381953e-11  4.437581e-11    failed    failed    1.1999996    1.2000016    0.    0.  2.909767e-11    failed    1.2000000  1.086003e-15    0.  7.743591e-16    1.2000000  1.086003e-15    1.2000000 -5.606611e-09    0.  5.165290e-08    1.2000000  2.795861e-09    0. -1.492998e-08   25.0000000 1
  20.0000000  1.190977e-11  4.628558e-11 -1.840179e-15  1.381953e-11  4.437581e-11    failed    failed    1.1999996    1.2000384    0.    0.  2.909767e-11    failed    1.2000000  1.082160e-15    0.  7.743722e-16    1.2000000  1.082160e-15    1.2000000  1.702564e-08    0. -1.969795e-08    1.2000000  2.538319e-08    0. -4.285982e-08   25.0000000 1
  21.0000000  1.190977e-11  4.628558e-11 -1.840975e-15  1.381953e-11  4.437581e-11    failed    failed    1.1999996    1.2001547    0.    0.  2.909767e-11    failed    1.2000000  1.058235e-15    0.  7.739253e-16    1.2000000  1.058235e-15    1.2000000  4.616782e-08    0.  3.766964e-08    1.2000000  8.214666e-08    0. -4.769801e-08   25.0000000 1
  22.0000000  1.428369e-11  9.139011e-11 -1.841373e-15  1.856738e-11  8.710642e-11    failed    failed    1.1999996    1.1999988    0.    0.  5.283690e-11    failed    1.2000000  1.085247e-15    0.  7.733509e-16    1.2000000  1.085247e-15    1.2000000  2.657628e-08    0.  4.525828e-08    1.2000000 -2.666028e-08    0. -4.502145e-08   25.0000000 1
  23.0000000  1.428369e-11  9.139011e-11 -1.838565e-15  1.856738e-11  8.710642e-11    failed    failed    1.1999996    1.1999987    0.    0.  5.283690e-11    failed    1.2000000  1.087987e-15    0.  7.746964e-16    1.2000000  1.087987e-15    1.2000000  3.459805e-08    0.  8.005813e-08    1.2000000 -5.785382e-08    0. -1.331094e-07   25.0000000 1
  24.0000000  1.428369e-11  9.139011e-11 -1.837305e-15  1.856738e-11  8.710642e-11    failed    failed    1.1999996    1.2000004    0.    0.  5.283690e-11    failed    1.2000000  1.092843e-15    0.  7.752914e-16    1.2000000  1.092843e-15    1.2000000 -4.412178e-08    0. -1.093320e-07    1.2000000  7.060558e-09    0.  1.792677e-08   25.0000000 1
  25.0000000  1.428369e-11  9.139011e-11 -1.839113e-15  1.856738e-11  8.710642e-11    failed    failed    1.1999996    1.1999995    0.    0.  5.283690e-11    failed    1.2000000  1.095726e-15    0.  7.748306e-16    1.2000000  1.095726e-15    1.2000000  5.564982e-08    0.  1.404267e-07    1.2000000 -4.531056e-09    0. -1.098406e-08   25.0000000 1
  26.0000000  1.428369e-11  9.139011e-11 -1.840880e-15  1.856738e-11  8.710642e-11    failed    failed    1.1999996    1.2000024    0.    0.  5.283690e-11    failed    1.2000000  1.097041e-15    0.  7.746712e-16    1.2000000  1.097041e-15    1.2000000 -6.002861e-08    0. -1.534193e-07    1.2000000  8.348829e-09    0.  1.652896e-08   25.0000000 1
  27.0000000  1.428369e-11  9.139011e-11 -1.842687e-15  1.856738e-11  8.710642e-11    failed    failed    1.1999996    1.2000423    0.    0.  5.283690e-11    failed    1.2000000  1.091949e-15    0.  7.725963e-16    1.2000000  1.091949e-15    1.2000000  1.568980e-08    0.  4.157465e-09    1.2000000  2.716586e-08    0. -3.355048e-08   25.0000000 1
  28.0000000  1.428369e-11  9.139011e-11 -1.843692e-15  1.856738e-11  8.710642e-11    failed    failed    1.1999996    1.2001689    0.    0.  5.283690e-11    failed    1.2000000  1.066661e-15    0.  7.728799e-16    1.2000000  1.066661e-15    1.2000000  5.951912e-08    0.  1.148686e-09    1.2000000  6.759873e-08    0.  3.323522e-09   25.0000000 1
  29.0000000  1.798214e-11  1.616608e-10 -1.849024e-15  2.596429e-11  1.536786e-10    failed    failed    1.1999996    1.1999986    0.    0.  8.982145e-11    failed    1.2000000  1.098298e-15    0.  7.747644e-16    1.2000000  1.098298e-15    1.2000000  4.315784e-08    0.  9.619839e-08    1.2000000 -7.900191e-08    0. -1.748777e-07   25.0000000 1
  30.0000000  1.798214e-11  1.616608e-10 -1.846400e-15  2.596429e-11  1.536786e-10    failed    failed    1.1999996    1.2000005    0.    0.  8.982145e-11    failed    1.2000000  1.098628e-15    0.  7.751305e-16    1.2000000  1.098628e-15    1.2000000 -8.578742e-09    0. -1.856612e-08    1.2000000  5.116324e-08    0.  1.133366e-07   25.0000000 1
  31.0000000  1.798214e-11  1.616608e-10 -1.840312e-15  2.596429e-11  1.536786e-10    failed    failed    1.1999996    1.1999993    0.    0.  8.982145e-11    failed    1.2000000  1.099403e-15    0.  7.743880e-16    1.2000000  1.099403e-15    1.2000000  8.339955e-09    0.  2.059368e-08    1.2000000 -4.903582e-08    0. -1.180071e-07   25.0000000 1
  32.0000000  1.798214e-11  1.616608e-10 -1.840508e-15  2.596429e-11  1.536786e-10    failed    failed    1.1999996    1.1999995    0.    0.  8.982145e-11    failed    1.2000000  1.101405e-15    0.  7.743581e-16    1.2000000  1.101405e-15    1.2000000 -5.780269e-09    0. -1.376272e-08    1.2000000 -3.902078e-08    0. -9.564904e-08   25.0000000 1
  33.0000000  1.798214e-11  1.616608e-10 -1.841664e-15  2.596429e-11  1.536786e-10    failed    failed    1.1999996    1.2000020    0.    0.  8.982145e-11    failed    1.2000000  1.102632e-15    0.  7.743836e-16    1.2000000  1.102632e-15    1.2000000 -3.481441e-09    0. -1.062153e-08    1.2000000 -3.764560e-08    0. -9.729766e-08   25.0000000 1
  34.0000000  1.798214e-11  1.616608e-10 -1.843691e-15  2.596429e-11  1.536786e-10    failed    failed    1.1999996    1.2000494    0.    0.  8.982145e-11    failed    1.2000000  1.097167e-15    0.  7.733675e-16    1.2000000  1.097167e-15    1.2000000  3.371967e-08    0.  3.654073e-08    1.2000000  4.085392e-08    0.  3.632822e-08   25.0000000 1
  35.0000000  1.798214e-11  1.616608e-10 -1.844548e-15  2.596429e-11  1.536786e-10    failed    failed    1.1999996    1.2001849    0.    0.  8.982145e-11    failed    1.2000000  1.069821e-15    0.  7.735663e-16    1.2000000  1.069821e-15    1.2000000  7.480017e-08    0.  1.627776e-08    1.2000000  1.059561e-07    0.  5.988664e-08   25.0000000 1
  36.0000000  2.317151e-11  2.602586e-10 -1.854628e-15  3.634301e-11  2.470871e-10    failed    failed    1.1999996    1.2000003    0.    0.  1.417151e-10    failed    1.2000000  1.105342e-15    0.  7.741847e-16    1.2000000  1.105342e-15    1.2000000 -4.581157e-08    0. -9.923424e-08    1.2000000  1.024068e-09    0.  2.650437e-09   25.0000000 1
  37.0000000  2.317151e-11  2.602586e-10 -1.852101e-15  3.634301e-11  2.470871e-10    failed    failed    1.1999996    1.1999991    0.    0.  1.417151e-10    failed    1.2000000  1.105861e-15    0.  7.753241e-16    1.2000000  1.105861e-15    1.2000000  2.467526e-08    0.  5.750791e-08    1.2000000 -3.467597e-08    0. -7.980535e-08   25.0000000 1
  38.0000000  2.317151e-11  2.602586e-10 -1.847560e-15  3.634301e-11  2.470871e-10    failed    failed    1.1999996    1.1999999    0.    0.  1.417151e-10    failed    1.2000000  1.106128e-15    0.  7.760383e-16    1.2000000  1.106128e-15    1.2000000 -3.114826e-08    0. -7.501859e-08    1.2000000 -3.787762e-09    0. -8.697388e-09   25.0000000 1
  39.0000000  2.317151e-11  2.602586e-10 -1.847480e-15  3.634301e-11  2.470871e-10    failed    failed    1.1999996    1.1999996    0.    0.  1.417151e-10    failed    1.2000000  1.106591e-15    0.  7.748472e-16    1.2000000  1.106591e-15    1.2000000  2.477813e-08    0.  5.883056e-08    1.2000000 -2.469185e-08    0. -5.767715e-08   25.0000000 1
  40.0000000  2.317151e-11  2.602586e-10 -1.847645e-15  3.634301e-11  2.470871e-10    failed    failed    1.1999996    1.2000026    0.    0.  1.417151e-10    failed    1.2000000  1.107464e-15    0.  7.749936e-16    1.2000000  1.107464e-15    1.2000000  1.721374e-08    0.  3.822757e-08    1.2000000 -3.398569e-08    0. -8.501875e-08   25.0000000 1
  41.0000000  2.317151e-11  2.602586e-10 -1.848069e-15  3.634301e-11  2.470871e-10    failed    failed    1.1999996    1.2000580    0.    0.  1.417151e-10    failed    1.2000000  1.101446e-15    0.  7.751991e-16    1.2000000  1.101446e-15    1.2000000  1.959999e-08    0. -6.659414e-09    1.2000000  1.257563e-09    0. -6.954113e-08   25.0000000 1
  42.0000000  2.317151e-11  2.602586e-10 -1.848461e-15  3.634301e-11  2.470871e-10    failed    failed    1.1999996    1.2002041    0.    0.  1.417151e-10    failed    1.2000000  1.071601e-15    0.  7.754175e-16    1.2000000  1.071601e-15    1.2000000  5.615835e-08    0. -4.731166e-08    1.2000000  7.725034e-08    0. -3.485460e-08   25.0000000 1
  43.0000000  3.000000e-11  3.900000e-10 -1.852139e-15  5.000000e-11  3.700000e-10    failed    failed    1.1999996    1.1999990    0.    0.  2.100000e-10    failed    1.2000000  1.109616e-15    0.  7.736878e-16    1.2000000  1.109616e-15    1.2000000  2.257673e-08    0.  5.033359e-08    1.2000000 -3.947148e-08    0. -8.670475e-08   25.0000000 1
  44.0000000  3.000000e-11  3.900000e-10 -1.850595e-15  5.000000e-11  3.700000e-10    failed    failed    1.1999996    1.1999992    0.    0.  2.100000e-10    failed    1.2000000  1.110533e-15    0.  7.755366e-16    1.2000000  1.110533e-15    1.2000000  1.459789e-08    0.  3.607740e-08    1.2000000 -2.512346e-08    0. -6.095234e-08   25.0000000 1
  45.0000000  3.000000e-11  3.900000e-10 -1.849375e-15  5.000000e-11  3.700000e-10    failed    failed    1.1999996    1.1999998    0.    0.  2.100000e-10    failed    1.2000000  1.109556e-15    0.  7.742515e-16    1.2000000  1.109556e-15    1.2000000  6.152916e-09    0.  1.513174e-08    1.2000000  2.284738e-08    0.  5.487556e-08   25.0000000 1
  46.0000000  3.000000e-11  3.900000e-10 -1.847728e-15  5.000000e-11  3.700000e-10    failed    failed    1.1999996    1.1999996    0.    0.  2.100000e-10    failed    1.2000000  1.110742e-15    0.  7.752977e-16    1.2000000  1.110742e-15    1.2000000 -2.501286e-09    0. -6.021739e-09    1.2000000 -2.073391e-08    0. -5.263063e-08   25.0000000 1
  47.0000000  3.000000e-11  3.900000e-10 -1.847324e-15  5.000000e-11  3.700000e-10    failed    failed    1.1999996    1.2000037    0.    0.  2.100000e-10    failed    1.2000000  1.111107e-15    0.  7.752691e-16    1.2000000  1.111107e-15    1.2000000 -1.135157e-08    0. -3.374277e-08    1.2000000 -8.773556e-09    0. -3.127413e-08   25.0000000 1
  48.0000000  3.000000e-11  3.900000e-10 -1.846373e-15  5.000000e-11  3.700000e-10    failed    failed    1.1999996    1.2000702    0.    0.  2.100000e-10    failed    1.2000000  1.102936e-15    0.  7.757357e-16    1.2000000  1.102936e-15    1.2000000  1.062877e-08    0. -4.579933e-08    1.2000000  4.321303e-08    0.  1.761023e-08   25.0000000 1
  49.0000000  3.000000e-11  3.900000e-10 -1.846691e-15  5.000000e-11  3.700000e-10    failed    failed    1.1999996    1.2002308    0.    0.  2.100000e-10    failed    1.2000000  1.069560e-15    0.  7.758337e-16    1.2000000  1.069560e-15    1.2000000  6.923080e-08    0. -4.554283e-08    1.2000000  1.093348e-07    0.  1.780017e-08   25.0000000 1
