$DATA1 SOURCE='HSPICE' VERSION='O-2018.09-2 linux64' PARAM_COUNT=1
$OPTION MEASFORM=1
.TITLE '.title delay__inb__hl__out__lh__acq_1'
index cin__inb__hl_trig cin__inb__hl_targ cin__inb__hl_q tin__inb__hl_trig tin__inb__hl_targ tout__out__lh_trig tout__out__lh_targ cap_energy__out__lh_vp0 cap_energy__out__lh_vp1 cap_energy__out__lh_vn0 cap_energy__out__lh_vn1 delay__inb__hl__out__lh_trig delay__inb__hl__out__lh_targ energy1__inb__hl__out__lh__vdd_vdd_harness_v energy1__inb__hl__out__lh__vdd_vdd_harness_q energy1__inb__hl__out__lh__vss_vss_harness_v energy1__inb__hl__out__lh__vss_vss_harness_q energy__inb__hl__out__lh_vdd_harness_v energy__inb__hl__out__lh_vdd_harness_q leakage_power1__vdd_vdd_harness_v leakage_power1__vdd_vdd_harness_i leakage_power1__vss_vss_harness_v leakage_power1__vss_vss_harness_i leakage_power2__vdd_vdd_harness_v leakage_power2__vdd_vdd_harness_i leakage_power2__vss_vss_harness_v leakage_power2__vss_vss_harness_i temper alter#
   1.0000000  1.031250e-11  1.593750e-11  1.417203e-15  1.062500e-11  1.562500e-11    failed  2.312259e-11    1.1999997    1.1999941    0.    0.  1.312500e-11    failed    1.2000000 -1.322656e-15    0. -2.818922e-16    1.2000000 -1.322656e-15    1.2000000 -2.246720e-07    0. -6.274731e-08    1.2000000 -3.236312e-08    0. -8.112861e-09   25.0000000 1
   2.0000000  1.031250e-11  1.593750e-11  1.467783e-15  1.062500e-11  1.562500e-11    failed    failed    1.1999997    1.1999975    0.    0.  1.312500e-11    failed    1.2000000 -1.322718e-15    0. -2.818996e-16    1.2000000 -1.322718e-15    1.2000000  1.443353e-07    0.  4.646335e-08    1.2000000 -6.243324e-08    0. -1.849999e-08   25.0000000 1
   3.0000000  1.031250e-11  1.593750e-11  1.514509e-15  1.062500e-11  1.562500e-11    failed    failed    1.1999997    1.1999969    0.    0.  1.312500e-11    failed    1.2000000 -1.322803e-15    0. -2.818601e-16    1.2000000 -1.322803e-15    1.2000000  9.980329e-08    0.  3.365066e-08    1.2000000 -1.805052e-07    0. -5.773814e-08   25.0000000 1
   4.0000000  1.031250e-11  1.593750e-11  1.532423e-15  1.062500e-11  1.562500e-11    failed    failed    1.1999997    1.1999967    0.    0.  1.312500e-11    failed    1.2000000 -1.322752e-15    0. -2.818421e-16    1.2000000 -1.322752e-15    1.2000000  5.916224e-08    0.  2.015268e-08    1.2000000  1.326184e-07    0.  4.379827e-08   25.0000000 1
   5.0000000  1.031250e-11  1.593750e-11  1.539543e-15  1.062500e-11  1.562500e-11    failed    failed    1.1999997    1.1999941    0.    0.  1.312500e-11    failed    1.2000000 -1.322474e-15    0. -2.818392e-16    1.2000000 -1.322474e-15    1.2000000 -1.485233e-07    0. -4.627073e-08    1.2000000  9.432571e-08    0.  3.206926e-08   25.0000000 1
   6.0000000  1.031250e-11  1.593750e-11  1.542905e-15  1.062500e-11  1.562500e-11    failed    failed    1.1999997    1.1999386    0.    0.  1.312500e-11    failed    1.2000000 -1.315505e-15    0. -2.818668e-16    1.2000000 -1.315505e-15    1.2000000  1.626646e-07    0.  6.147584e-08    1.2000000 -9.039155e-09    0.  8.693831e-09   25.0000000 1
   7.0000000  1.031250e-11  1.593750e-11  1.544701e-15  1.062500e-11  1.562500e-11    failed    failed    1.1999997    1.1997651    0.    0.  1.312500e-11    failed    1.2000000 -1.279805e-15    0. -2.819572e-16    1.2000000 -1.279805e-15    1.2000000  5.216081e-08    0.  4.634562e-08    1.2000000 -4.259620e-08    0.  2.155098e-08   25.0000000 1
   8.0000000  1.066664e-11  2.266624e-11  1.456675e-15  1.133329e-11  2.199959e-11    failed  2.723515e-11    1.1999997    1.1999995    0.    0.  1.666644e-11    failed    1.2000000 -1.323157e-15    0. -2.822961e-16    1.2000000 -1.323157e-15    1.2000000 -1.060311e-07    0. -5.285577e-08    1.2000000  4.444757e-08    0.  2.407182e-08   25.0000000 1
   9.0000000  1.066664e-11  2.266624e-11  1.487575e-15  1.133329e-11  2.199959e-11    failed    failed    1.1999997    1.1999972    0.    0.  1.666644e-11    failed    1.2000000 -1.323215e-15    0. -2.813812e-16    1.2000000 -1.323215e-15    1.2000000 -4.312022e-08    0. -1.755148e-08    1.2000000 -3.211101e-08    0. -1.274939e-08   25.0000000 1
  10.0000000  1.066664e-11  2.266624e-11  1.535539e-15  1.133329e-11  2.199959e-11    failed    failed    1.1999997    1.1999968    0.    0.  1.666644e-11    failed    1.2000000 -1.323270e-15    0. -2.823153e-16    1.2000000 -1.323270e-15    1.2000000  3.970210e-08    0.  1.772678e-08    1.2000000 -9.595295e-09    0. -2.773408e-09   25.0000000 1
  11.0000000  1.066664e-11  2.266624e-11  1.558916e-15  1.133329e-11  2.199959e-11    failed    failed    1.1999997    1.1999968    0.    0.  1.666644e-11    failed    1.2000000 -1.322976e-15    0. -2.820353e-16    1.2000000 -1.322976e-15    1.2000000 -1.425518e-08    0. -6.893058e-09    1.2000000 -6.982279e-08    0. -3.928371e-08   25.0000000 1
  12.0000000  1.066664e-11  2.266624e-11  1.567565e-15  1.133329e-11  2.199959e-11    failed    failed    1.1999997    1.1999941    0.    0.  1.666644e-11    failed    1.2000000 -1.322685e-15    0. -2.820153e-16    1.2000000 -1.322685e-15    1.2000000  2.740594e-08    0.  1.863903e-08    1.2000000 -9.790645e-08    0. -5.639546e-08   25.0000000 1
  13.0000000  1.066664e-11  2.266624e-11  1.571766e-15  1.133329e-11  2.199959e-11    failed    failed    1.1999997    1.1999375    0.    0.  1.666644e-11    failed    1.2000000 -1.315566e-15    0. -2.820374e-16    1.2000000 -1.315566e-15    1.2000000 -3.184917e-08    0. -3.871432e-09    1.2000000  5.751908e-08    0.  5.536968e-08   25.0000000 1
  14.0000000  1.066664e-11  2.266624e-11  1.574035e-15  1.133329e-11  2.199959e-11    failed    failed    1.1999997    1.1997636    0.    0.  1.666644e-11    failed    1.2000000 -1.279725e-15    0. -2.821268e-16    1.2000000 -1.279725e-15    1.2000000 -1.005144e-07    0. -6.694769e-09    1.2000000 -1.215267e-08    0.  5.794429e-08   25.0000000 1
  15.0000000  1.190977e-11  4.628558e-11  1.521743e-15  1.381953e-11  4.437581e-11    failed    failed    1.1999997    1.1999937    0.    0.  2.909767e-11    failed    1.2000000 -1.323655e-15    0. -2.826854e-16    1.2000000 -1.323655e-15    1.2000000 -5.941508e-08    0. -3.351967e-08    1.2000000 -3.711876e-08    0. -2.041279e-08   25.0000000 1
  16.0000000  1.190977e-11  4.628558e-11  1.540271e-15  1.381953e-11  4.437581e-11    failed    failed    1.1999997    1.1999976    0.    0.  2.909767e-11    failed    1.2000000 -1.323010e-15    0. -2.822047e-16    1.2000000 -1.323010e-15    1.2000000 -1.213930e-08    0. -6.838553e-09    1.2000000  3.196437e-08    0.  2.359517e-08   25.0000000 1
  17.0000000  1.190977e-11  4.628558e-11  1.576269e-15  1.381953e-11  4.437581e-11    failed    failed    1.1999997    1.1999967    0.    0.  2.909767e-11    failed    1.2000000 -1.322677e-15    0. -2.818300e-16    1.2000000 -1.322677e-15    1.2000000  1.769606e-08    0.  1.392630e-08    1.2000000  3.061254e-08    0.  2.291969e-08   25.0000000 1
  18.0000000  1.190977e-11  4.628558e-11  1.598755e-15  1.381953e-11  4.437581e-11    failed    failed    1.1999997    1.1999968    0.    0.  2.909767e-11    failed    1.2000000 -1.322981e-15    0. -2.820732e-16    1.2000000 -1.322981e-15    1.2000000 -2.329904e-08    0. -1.940725e-08    1.2000000  1.633081e-08    0.  1.667335e-08   25.0000000 1
  19.0000000  1.190977e-11  4.628558e-11  1.609311e-15  1.381953e-11  4.437581e-11    failed    failed    1.1999997    1.1999938    0.    0.  2.909767e-11    failed    1.2000000 -1.322680e-15    0. -2.820646e-16    1.2000000 -1.322680e-15    1.2000000 -7.697599e-09    0. -4.213594e-09    1.2000000 -2.842112e-08    0. -2.232086e-08   25.0000000 1
  20.0000000  1.190977e-11  4.628558e-11  1.614711e-15  1.381953e-11  4.437581e-11    failed    failed    1.1999997    1.1999337    0.    0.  2.909767e-11    failed    1.2000000 -1.315104e-15    0. -2.820890e-16    1.2000000 -1.315104e-15    1.2000000 -5.334991e-08    0. -2.398688e-08    1.2000000 -2.804860e-08    0.  6.668822e-09   25.0000000 1
  21.0000000  1.190977e-11  4.628558e-11  1.617335e-15  1.381953e-11  4.437581e-11    failed    failed    1.1999997    1.1997575    0.    0.  2.909767e-11    failed    1.2000000 -1.278429e-15    0. -2.820452e-16    1.2000000 -1.278429e-15    1.2000000 -5.960430e-08    0.  3.095479e-08    1.2000000 -1.075999e-07    0.  3.223634e-09   25.0000000 1
  22.0000000  1.428369e-11  9.139011e-11  1.575960e-15  1.856738e-11  8.710642e-11    failed    failed    1.1999997    1.1999946    0.    0.  5.283690e-11    failed    1.2000000 -1.322345e-15    0. -2.817833e-16    1.2000000 -1.322345e-15    1.2000000  2.942412e-08    0.  2.495592e-08    1.2000000 -4.440608e-08    0. -3.355570e-08   25.0000000 1
  23.0000000  1.428369e-11  9.139011e-11  1.580808e-15  1.856738e-11  8.710642e-11    failed    failed    1.1999997    1.1999954    0.    0.  5.283690e-11    failed    1.2000000 -1.322440e-15    0. -2.817059e-16    1.2000000 -1.322440e-15    1.2000000  2.201543e-08    0.  1.420951e-08    1.2000000 -7.520604e-09    0. -2.958089e-09   25.0000000 1
  24.0000000  1.428369e-11  9.139011e-11  1.597260e-15  1.856738e-11  8.710642e-11    failed    failed    1.1999997    1.1999962    0.    0.  5.283690e-11    failed    1.2000000 -1.322464e-15    0. -2.816507e-16    1.2000000 -1.322464e-15    1.2000000  1.396806e-08    0.  9.600469e-09    1.2000000 -2.084346e-08    0. -1.077912e-08   25.0000000 1
  25.0000000  1.428369e-11  9.139011e-11  1.613531e-15  1.856738e-11  8.710642e-11    failed    failed    1.1999997    1.1999969    0.    0.  5.283690e-11    failed    1.2000000 -1.322433e-15    0. -2.816783e-16    1.2000000 -1.322433e-15    1.2000000  5.447286e-10    0.  1.934019e-09    1.2000000  1.353645e-08    0.  1.078469e-08   25.0000000 1
  26.0000000  1.428369e-11  9.139011e-11  1.622626e-15  1.856738e-11  8.710642e-11    failed    failed    1.1999997    1.1999933    0.    0.  5.283690e-11    failed    1.2000000 -1.322096e-15    0. -2.816696e-16    1.2000000 -1.322096e-15    1.2000000 -8.272735e-09    0. -3.260340e-09    1.2000000 -1.562056e-08    0. -7.472844e-09   25.0000000 1
  27.0000000  1.428369e-11  9.139011e-11  1.627732e-15  1.856738e-11  8.710642e-11    failed    failed    1.1999997    1.1999284    0.    0.  5.283690e-11    failed    1.2000000 -1.313903e-15    0. -2.816954e-16    1.2000000 -1.313903e-15    1.2000000 -4.547113e-08    0. -1.069773e-08    1.2000000 -4.023151e-08    0. -2.116714e-10   25.0000000 1
  28.0000000  1.428369e-11  9.139011e-11  1.630707e-15  1.856738e-11  8.710642e-11    failed    failed    1.1999997    1.1997425    0.    0.  5.283690e-11    failed    1.2000000 -1.275291e-15    0. -2.817919e-16    1.2000000 -1.275291e-15    1.2000000 -1.144770e-07    0. -1.081753e-08    1.2000000 -1.195078e-07    0. -4.920796e-10   25.0000000 1
  29.0000000  1.798215e-11  1.616608e-10  1.609676e-15  2.596429e-11  1.536786e-10    failed    failed    1.1999997    1.1999997    0.    0.  8.982145e-11    failed    1.2000000 -1.323231e-15    0. -2.823070e-16    1.2000000 -1.323231e-15    1.2000000 -4.517769e-08    0. -5.453904e-08    1.2000000  1.308126e-09    0.  3.856433e-09   25.0000000 1
  30.0000000  1.798215e-11  1.616608e-10  1.609501e-15  2.596429e-11  1.536786e-10    failed    failed    1.1999997    1.1999949    0.    0.  8.982145e-11    failed    1.2000000 -1.322780e-15    0. -2.819727e-16    1.2000000 -1.322780e-15    1.2000000 -1.588254e-08    0. -1.386538e-08    1.2000000 -2.062252e-08    0. -1.847962e-08   25.0000000 1
  31.0000000  1.798215e-11  1.616608e-10  1.613121e-15  2.596429e-11  1.536786e-10    failed    failed    1.1999997    1.1999976    0.    0.  8.982145e-11    failed    1.2000000 -1.323143e-15    0. -2.822509e-16    1.2000000 -1.323143e-15    1.2000000 -2.621271e-08    0. -3.288904e-08    1.2000000  5.667096e-09    0.  9.935285e-09   25.0000000 1
  32.0000000  1.798215e-11  1.616608e-10  1.621562e-15  2.596429e-11  1.536786e-10    failed    failed    1.1999997    1.1999972    0.    0.  8.982145e-11    failed    1.2000000 -1.323129e-15    0. -2.823160e-16    1.2000000 -1.323129e-15    1.2000000 -1.566208e-08    0. -2.109387e-08    1.2000000  3.949652e-08    0.  6.215937e-08   25.0000000 1
  33.0000000  1.798215e-11  1.616608e-10  1.628218e-15  2.596429e-11  1.536786e-10    failed    failed    1.1999997    1.1999925    0.    0.  8.982145e-11    failed    1.2000000 -1.322620e-15    0. -2.822442e-16    1.2000000 -1.322620e-15    1.2000000 -4.387756e-08    0. -5.950579e-08    1.2000000 -1.014133e-08    0. -6.361231e-09   25.0000000 1
  34.0000000  1.798215e-11  1.616608e-10  1.632494e-15  2.596429e-11  1.536786e-10    failed    failed    1.1999997    1.1999130    0.    0.  8.982145e-11    failed    1.2000000 -1.312678e-15    0. -2.822882e-16    1.2000000 -1.312678e-15    1.2000000 -2.129037e-08    0.  1.920769e-08    1.2000000 -9.023595e-08    0. -6.823726e-08   25.0000000 1
  35.0000000  1.798214e-11  1.616608e-10  1.635070e-15  2.596429e-11  1.536786e-10    failed    failed    1.1999997    1.1997183    0.    0.  8.982145e-11    failed    1.2000000 -1.270946e-15    0. -2.819157e-16    1.2000000 -1.270946e-15    1.2000000 -9.171848e-08    0.  7.322688e-09    1.2000000 -1.296244e-07    0. -4.887632e-10   25.0000000 1
  36.0000000  2.317151e-11  2.602586e-10  1.625379e-15  3.634301e-11  2.470871e-10    failed    failed    1.1999997    1.1999995    0.    0.  1.417151e-10    failed    1.2000000 -1.324336e-15    0. -2.829390e-16    1.2000000 -1.324336e-15    1.2000000  1.109992e-08    0.  1.811504e-08    1.2000000  2.389031e-08    0.  3.613610e-08   25.0000000 1
  37.0000000  2.317151e-11  2.602586e-10  1.624457e-15  3.634301e-11  2.470871e-10    failed    failed    1.1999997    1.1999985    0.    0.  1.417151e-10    failed    1.2000000 -1.323648e-15    0. -2.826473e-16    1.2000000 -1.323648e-15    1.2000000 -3.144051e-08    0. -4.371692e-08    1.2000000  1.216858e-09    0.  4.237981e-09   25.0000000 1
  38.0000000  2.317151e-11  2.602586e-10  1.623286e-15  3.634301e-11  2.470871e-10    failed    failed    1.1999997    1.1999975    0.    0.  1.417151e-10    failed    1.2000000 -1.323669e-15    0. -2.827977e-16    1.2000000 -1.323669e-15    1.2000000  3.983105e-10    0.  2.678260e-09    1.2000000  2.966777e-08    0.  4.082481e-08   25.0000000 1
  39.0000000  2.317151e-11  2.602586e-10  1.626406e-15  3.634301e-11  2.470871e-10    failed    failed    1.1999997    1.1999964    0.    0.  1.417151e-10    failed    1.2000000 -1.323672e-15    0. -2.829111e-16    1.2000000 -1.323672e-15    1.2000000  8.767251e-09    0.  1.314835e-08    1.2000000 -3.402340e-08    0. -4.006171e-08   25.0000000 1
  40.0000000  2.317151e-11  2.602586e-10  1.630406e-15  3.634301e-11  2.470871e-10    failed    failed    1.1999997    1.1999904    0.    0.  1.417151e-10    failed    1.2000000 -1.323056e-15    0. -2.828992e-16    1.2000000 -1.323056e-15    1.2000000 -2.671316e-08    0. -2.687630e-08    1.2000000 -1.568909e-08    0. -1.069968e-08   25.0000000 1
  41.0000000  2.317151e-11  2.602586e-10  1.633582e-15  3.634301e-11  2.470871e-10    failed    failed    1.1999997    1.1998989    0.    0.  1.417151e-10    failed    1.2000000 -1.311491e-15    0. -2.829282e-16    1.2000000 -1.311491e-15    1.2000000 -5.805397e-08    0. -2.154689e-08    1.2000000 -6.755491e-08    0. -1.614112e-08   25.0000000 1
  42.0000000  2.317151e-11  2.602586e-10  1.635793e-15  3.634301e-11  2.470871e-10    failed    failed    1.1999997    1.1996813    0.    0.  1.417151e-10    failed    1.2000000 -1.265169e-15    0. -2.830337e-16    1.2000000 -1.265169e-15    1.2000000 -1.342882e-07    0. -1.749066e-08    1.2000000 -1.606333e-07    0. -1.971118e-08   25.0000000 1
  43.0000000  3.000000e-11  3.900000e-10  1.633031e-15  5.000000e-11  3.700000e-10    failed    failed    1.1999997    1.1999952    0.    0.  2.100000e-10    failed    1.2000000 -1.324776e-15    0. -2.831882e-16    1.2000000 -1.324776e-15    1.2000000  2.130469e-08    0.  2.462346e-08    1.2000000 -1.140634e-08    0. -1.008447e-08   25.0000000 1
  44.0000000  3.000000e-11  3.900000e-10  1.631362e-15  5.000000e-11  3.700000e-10    failed    failed    1.1999997    1.1999959    0.    0.  2.100000e-10    failed    1.2000000 -1.324369e-15    0. -2.831826e-16    1.2000000 -1.324369e-15    1.2000000  2.037750e-08    0.  2.345932e-08    1.2000000 -3.566400e-09    0. -1.747224e-09   25.0000000 1
  45.0000000  3.000000e-11  3.900000e-10  1.633200e-15  5.000000e-11  3.700000e-10    failed    failed    1.1999997    1.1999964    0.    0.  2.100000e-10    failed    1.2000000 -1.323618e-15    0. -2.828546e-16    1.2000000 -1.323618e-15    1.2000000  2.333228e-08    0.  2.137040e-08    1.2000000 -3.647788e-10    0.  1.481006e-09   25.0000000 1
  46.0000000  3.000000e-11  3.900000e-10  1.634013e-15  5.000000e-11  3.700000e-10    failed    failed    1.1999997    1.1999966    0.    0.  2.100000e-10    failed    1.2000000 -1.323418e-15    0. -2.828228e-16    1.2000000 -1.323418e-15    1.2000000  1.291820e-08    0.  1.227952e-08    1.2000000 -2.546036e-08    0. -1.882958e-08   25.0000000 1
  47.0000000  3.000000e-11  3.900000e-10  1.636256e-15  5.000000e-11  3.700000e-10    failed    failed    1.1999997    1.1999870    0.    0.  2.100000e-10    failed    1.2000000 -1.322489e-15    0. -2.827981e-16    1.2000000 -1.322489e-15    1.2000000 -2.898048e-08    0. -1.715626e-08    1.2000000 -5.817052e-09    0.  3.106610e-09   25.0000000 1
  48.0000000  3.000000e-11  3.900000e-10  1.638509e-15  5.000000e-11  3.700000e-10    failed    failed    1.1999997    1.1998713    0.    0.  2.100000e-10    failed    1.2000000 -1.307831e-15    0. -2.828451e-16    1.2000000 -1.307831e-15    1.2000000 -7.425192e-08    0. -1.636509e-08    1.2000000 -6.163890e-08    0.  5.030841e-09   25.0000000 1
  49.0000000  3.000000e-11  3.900000e-10  1.640289e-15  5.000000e-11  3.700000e-10    failed    failed    1.1999997    1.1996272    0.    0.  2.100000e-10    failed    1.2000000 -1.254914e-15    0. -2.829671e-16    1.2000000 -1.254914e-15    1.2000000 -1.642623e-07    0. -1.654022e-08    1.2000000 -1.633761e-07    0.  4.079550e-09   25.0000000 1
