$DATA1 SOURCE='HSPICE' VERSION='O-2018.09-2 linux64' PARAM_COUNT=1
$OPTION MEASFORM=1
.TITLE '.title delay__inb__lh__out__hl__acq_1'
index cin__inb__lh_trig cin__inb__lh_targ cin__inb__lh_q tin__inb__lh_trig tin__inb__lh_targ tout__out__hl_trig tout__out__hl_targ cap_energy__out__hl_vp0 cap_energy__out__hl_vp1 cap_energy__out__hl_vn0 cap_energy__out__hl_vn1 delay__inb__lh__out__hl_trig delay__inb__lh__out__hl_targ energy1__inb__lh__out__hl__vdd_vdd_harness_v energy1__inb__lh__out__hl__vdd_vdd_harness_q energy1__inb__lh__out__hl__vss_vss_harness_v energy1__inb__lh__out__hl__vss_vss_harness_q energy__inb__lh__out__hl_vdd_harness_v energy__inb__lh__out__hl_vdd_harness_q leakage_power1__vdd_vdd_harness_v leakage_power1__vdd_vdd_harness_i leakage_power1__vss_vss_harness_v leakage_power1__vss_vss_harness_i leakage_power2__vdd_vdd_harness_v leakage_power2__vdd_vdd_harness_i leakage_power2__vss_vss_harness_v leakage_power2__vss_vss_harness_i temper alter#
   1.0000000  1.031250e-11  1.593750e-11 -1.529071e-15  1.062500e-11  1.562500e-11    failed    failed    1.1999997    1.2000109    0.    0.  1.312500e-11    failed    1.2000000  1.206457e-15    0.  2.806960e-16    1.2000000  1.206457e-15    1.2000000 -1.543989e-07    0. -4.656861e-08    1.2000000  1.155491e-07    0.  3.366507e-08   25.0000000 1
   2.0000000  1.031250e-11  1.593750e-11 -1.554842e-15  1.062500e-11  1.562500e-11    failed    failed    1.1999997    1.2000093    0.    0.  1.312500e-11    failed    1.2000000  1.209777e-15    0.  2.807331e-16    1.2000000  1.209777e-15    1.2000000  1.336284e-07    0.  4.395398e-08    1.2000000  5.984075e-09    0.  1.474672e-09   25.0000000 1
   3.0000000  1.031250e-11  1.593750e-11 -1.584768e-15  1.062500e-11  1.562500e-11    failed    failed    1.1999997    1.2000073    0.    0.  1.312500e-11    failed    1.2000000  1.213513e-15    0.  2.808913e-16    1.2000000  1.213513e-15    1.2000000  1.382096e-07    0.  6.162439e-08    1.2000000 -2.541338e-08    0. -1.202556e-08   25.0000000 1
   4.0000000  1.031250e-11  1.593750e-11 -1.596415e-15  1.062500e-11  1.562500e-11    failed    failed    1.1999997    1.2000068    0.    0.  1.312500e-11    failed    1.2000000  1.214604e-15    0.  2.809310e-16    1.2000000  1.214604e-15    1.2000000  1.335150e-07    0.  6.482957e-08    1.2000000 -4.567485e-08    0. -2.300923e-08   25.0000000 1
   5.0000000  1.031250e-11  1.593750e-11 -1.601121e-15  1.062500e-11  1.562500e-11    failed    failed    1.1999997    1.2000078    0.    0.  1.312500e-11    failed    1.2000000  1.214759e-15    0.  2.809489e-16    1.2000000  1.214759e-15    1.2000000  1.445558e-07    0.  7.213417e-08    1.2000000 -1.432546e-08    0. -8.401950e-09   25.0000000 1
   6.0000000  1.031250e-11  1.593750e-11 -1.603337e-15  1.062500e-11  1.562500e-11    failed    failed    1.1999997    1.2000439    0.    0.  1.312500e-11    failed    1.2000000  1.210254e-15    0.  2.809760e-16    1.2000000  1.210254e-15    1.2000000 -2.525498e-08    0. -2.118838e-08    1.2000000 -9.901510e-08    0. -6.144049e-08   25.0000000 1
   7.0000000  1.031250e-11  1.593750e-11 -1.604518e-15  1.062500e-11  1.562500e-11    failed    failed    1.1999997    1.2001617    0.    0.  1.312500e-11    failed    1.2000000  1.186049e-15    0.  2.810438e-16    1.2000000  1.186049e-15    1.2000000 -2.096357e-08    0. -4.162012e-08    1.2000000 -1.589898e-08    0. -4.518247e-08   25.0000000 1
   8.0000000  1.066664e-11  2.266624e-11 -1.550081e-15  1.133329e-11  2.199959e-11    failed    failed    1.1999997    1.2000085    0.    0.  1.666644e-11    failed    1.2000000  1.215235e-15    0.  2.811172e-16    1.2000000  1.215235e-15    1.2000000 -7.757562e-08    0. -2.801814e-08    1.2000000 -6.198067e-09    0. -2.692857e-09   25.0000000 1
   9.0000000  1.066664e-11  2.266624e-11 -1.562402e-15  1.133329e-11  2.199959e-11    failed    failed    1.1999997    1.2000051    0.    0.  1.666644e-11    failed    1.2000000  1.219252e-15    0.  2.813634e-16    1.2000000  1.219252e-15    1.2000000 -2.355320e-08    0. -1.388906e-08    1.2000000 -3.287321e-08    0. -1.920685e-08   25.0000000 1
  10.0000000  1.066664e-11  2.266624e-11 -1.586908e-15  1.133329e-11  2.199959e-11    failed    failed    1.1999997    1.2000032    0.    0.  1.666644e-11    failed    1.2000000  1.225553e-15    0.  2.814914e-16    1.2000000  1.225553e-15    1.2000000  5.179745e-08    0.  4.152394e-08    1.2000000 -1.657598e-08    0. -1.387590e-08   25.0000000 1
  11.0000000  1.066664e-11  2.266624e-11 -1.598437e-15  1.133329e-11  2.199959e-11    failed    failed    1.1999997    1.2000030    0.    0.  1.666644e-11    failed    1.2000000  1.227724e-15    0.  2.814785e-16    1.2000000  1.227724e-15    1.2000000 -2.797193e-08    0. -1.442149e-08    1.2000000  3.242265e-08    0.  1.626782e-08   25.0000000 1
  12.0000000  1.066664e-11  2.266624e-11 -1.603371e-15  1.133329e-11  2.199959e-11    failed    failed    1.1999997    1.2000041    0.    0.  1.666644e-11    failed    1.2000000  1.228366e-15    0.  2.814288e-16    1.2000000  1.228366e-15    1.2000000 -7.289417e-09    0. -4.145913e-09    1.2000000  4.820405e-08    0.  2.343556e-08   25.0000000 1
  13.0000000  1.066664e-11  2.266624e-11 -1.605750e-15  1.133329e-11  2.199959e-11    failed    failed    1.1999997    1.2000418    0.    0.  1.666644e-11    failed    1.2000000  1.224007e-15    0.  2.814285e-16    1.2000000  1.224007e-15    1.2000000 -7.510418e-09    0. -1.166223e-08    1.2000000 -3.425213e-09    0. -1.256831e-08   25.0000000 1
  14.0000000  1.066664e-11  2.266624e-11 -1.607033e-15  1.133329e-11  2.199959e-11    failed    failed    1.1999997    1.2001667    0.    0.  1.666644e-11    failed    1.2000000  1.198745e-15    0.  2.814849e-16    1.2000000  1.198745e-15    1.2000000  1.829748e-08    0. -2.232298e-08    1.2000000  7.169356e-08    0. -2.298525e-09   25.0000000 1
  15.0000000  1.190977e-11  4.628558e-11 -1.586308e-15  1.381953e-11  4.437581e-11    failed    failed    1.1999997    1.2000055    0.    0.  2.909767e-11    failed    1.2000000  1.229947e-15    0.  2.815896e-16    1.2000000  1.229947e-15    1.2000000 -4.628438e-08    0. -2.495001e-08    1.2000000  2.420510e-08    0.  1.274914e-08   25.0000000 1
  16.0000000  1.190977e-11  4.628558e-11 -1.583002e-15  1.381953e-11  4.437581e-11    failed    failed    1.1999997    1.1999996    0.    0.  2.909767e-11    failed    1.2000000  1.236191e-15    0.  2.817323e-16    1.2000000  1.236191e-15    1.2000000 -1.393259e-09    0. -4.422069e-10    1.2000000 -2.468033e-08    0. -7.332152e-09   25.0000000 1
  17.0000000  1.190977e-11  4.628558e-11 -1.596495e-15  1.381953e-11  4.437581e-11    failed    failed    1.1999997    1.2000015    0.    0.  2.909767e-11    failed    1.2000000  1.243644e-15    0.  2.817045e-16    1.2000000  1.243644e-15    1.2000000 -7.807857e-09    0. -3.035719e-09    1.2000000  2.270020e-08    0.  8.751656e-09   25.0000000 1
  18.0000000  1.190977e-11  4.628558e-11 -1.604807e-15  1.381953e-11  4.437581e-11    failed    failed    1.1999997    1.2000005    0.    0.  2.909767e-11    failed    1.2000000  1.247128e-15    0.  2.815858e-16    1.2000000  1.247128e-15    1.2000000  3.215364e-09    0.  1.494839e-09    1.2000000 -2.239567e-08    0. -1.030777e-08   25.0000000 1
  19.0000000  1.190977e-11  4.628558e-11 -1.608487e-15  1.381953e-11  4.437581e-11    failed    failed    1.1999997    1.2000021    0.    0.  2.909767e-11    failed    1.2000000  1.248098e-15    0.  2.811844e-16    1.2000000  1.248098e-15    1.2000000 -9.553614e-09    0. -3.602723e-09    1.2000000 -4.408975e-09    0. -2.065694e-09   25.0000000 1
  20.0000000  1.190977e-11  4.628558e-11 -1.610664e-15  1.381953e-11  4.437581e-11    failed    failed    1.1999997    1.2000452    0.    0.  2.909767e-11    failed    1.2000000  1.243670e-15    0.  2.812894e-16    1.2000000  1.243670e-15    1.2000000  1.902673e-08    0. -1.813206e-10    1.2000000  3.418623e-08    0. -5.411722e-10   25.0000000 1
  21.0000000  1.190977e-11  4.628558e-11 -1.611891e-15  1.381953e-11  4.437581e-11    failed    failed    1.1999997    1.2001833    0.    0.  2.909767e-11    failed    1.2000000  1.216032e-15    0.  2.814094e-16    1.2000000  1.216032e-15    1.2000000  7.334077e-08    0. -1.658235e-09    1.2000000  8.982118e-08    0. -2.174565e-09   25.0000000 1
  22.0000000  1.428369e-11  9.139011e-11 -1.607824e-15  1.856738e-11  8.710642e-11    failed    failed    1.1999997    1.2000030    0.    0.  5.283690e-11    failed    1.2000000  1.247442e-15    0.  2.808590e-16    1.2000000  1.247442e-15    1.2000000  1.192272e-08    0.  1.195625e-08    1.2000000  4.713811e-08    0.  4.727152e-08   25.0000000 1
  23.0000000  1.428369e-11  9.139011e-11 -1.603916e-15  1.856738e-11  8.710642e-11    failed    failed    1.1999997    1.2000030    0.    0.  5.283690e-11    failed    1.2000000  1.250053e-15    0.  2.812598e-16    1.2000000  1.250053e-15    1.2000000 -3.020512e-08    0. -3.593048e-08    1.2000000  8.021532e-08    0.  9.535275e-08   25.0000000 1
  24.0000000  1.428369e-11  9.139011e-11 -1.602936e-15  1.856738e-11  8.710642e-11    failed    failed    1.1999997    1.2000015    0.    0.  5.283690e-11    failed    1.2000000  1.255210e-15    0.  2.813908e-16    1.2000000  1.255210e-15    1.2000000  3.345388e-08    0.  4.066846e-08    1.2000000  3.081089e-08    0.  3.738713e-08   25.0000000 1
  25.0000000  1.428369e-11  9.139011e-11 -1.606444e-15  1.856738e-11  8.710642e-11    failed    failed    1.1999997    1.1999997    0.    0.  5.283690e-11    failed    1.2000000  1.258525e-15    0.  2.812576e-16    1.2000000  1.258525e-15    1.2000000 -1.824956e-08    0. -2.246160e-08    1.2000000 -4.421972e-08    0. -5.426219e-08   25.0000000 1
  26.0000000  1.428369e-11  9.139011e-11 -1.610257e-15  1.856738e-11  8.710642e-11    failed    failed    1.1999997    1.2000022    0.    0.  5.283690e-11    failed    1.2000000  1.259403e-15    0.  2.806389e-16    1.2000000  1.259403e-15    1.2000000 -1.445500e-08    0. -4.644681e-09    1.2000000  1.567812e-09    0.  3.291365e-11   25.0000000 1
  27.0000000  1.428369e-11  9.139011e-11 -1.612653e-15  1.856738e-11  8.710642e-11    failed    failed    1.1999997    1.2000509    0.    0.  5.283690e-11    failed    1.2000000  1.254544e-15    0.  2.808328e-16    1.2000000  1.254544e-15    1.2000000  1.271275e-09    0. -1.339715e-08    1.2000000  2.843428e-08    0.  4.892456e-10   25.0000000 1
  28.0000000  1.428369e-11  9.139011e-11 -1.614121e-15  1.856738e-11  8.710642e-11    failed    failed    1.1999997    1.2001999    0.    0.  5.283690e-11    failed    1.2000000  1.224722e-15    0.  2.810031e-16    1.2000000  1.224722e-15    1.2000000  5.472665e-08    0. -1.755734e-08    1.2000000  9.256210e-08    0.  1.049707e-09   25.0000000 1
  29.0000000  1.798214e-11  1.616608e-10 -1.617657e-15  2.596429e-11  1.536786e-10    failed    failed    1.1999997    1.1999984    0.    0.  8.982145e-11    failed    1.2000000  1.261252e-15    0.  2.814415e-16    1.2000000  1.261252e-15    1.2000000  4.384614e-08    0.  5.674841e-08    1.2000000 -8.313076e-08    0. -1.076246e-07   25.0000000 1
  30.0000000  1.798214e-11  1.616608e-10 -1.613949e-15  2.596429e-11  1.536786e-10    failed    failed    1.1999997    1.2000013    0.    0.  8.982145e-11    failed    1.2000000  1.261909e-15    0.  2.818171e-16    1.2000000  1.261909e-15    1.2000000  1.174037e-08    0.  1.590830e-08    1.2000000  3.314346e-08    0.  4.468034e-08   25.0000000 1
  31.0000000  1.798214e-11  1.616608e-10 -1.610765e-15  2.596429e-11  1.536786e-10    failed    failed    1.1999997    1.2000008    0.    0.  8.982145e-11    failed    1.2000000  1.262540e-15    0.  2.813665e-16    1.2000000  1.262540e-15    1.2000000 -1.733296e-08    0. -2.353569e-08    1.2000000  3.798056e-08    0.  5.175291e-08   25.0000000 1
  32.0000000  1.798214e-11  1.616608e-10 -1.608248e-15  2.596429e-11  1.536786e-10    failed    failed    1.1999997    1.1999998    0.    0.  8.982145e-11    failed    1.2000000  1.264771e-15    0.  2.813164e-16    1.2000000  1.264771e-15    1.2000000 -2.702130e-08    0. -3.419836e-08    1.2000000 -1.602048e-08    0. -2.024302e-08   25.0000000 1
  33.0000000  1.798214e-11  1.616608e-10 -1.610977e-15  2.596429e-11  1.536786e-10    failed    failed    1.1999997    1.2000026    0.    0.  8.982145e-11    failed    1.2000000  1.265657e-15    0.  2.809368e-16    1.2000000  1.265657e-15    1.2000000  1.140339e-08    0.  1.159374e-08    1.2000000  2.250725e-08    0.  2.280630e-08   25.0000000 1
  34.0000000  1.798214e-11  1.616608e-10 -1.612764e-15  2.596429e-11  1.536786e-10    failed    failed    1.1999997    1.2000581    0.    0.  8.982145e-11    failed    1.2000000  1.259862e-15    0.  2.810451e-16    1.2000000  1.259862e-15    1.2000000  2.758060e-08    0.  5.868706e-09    1.2000000  5.712421e-08    0.  3.118713e-08   25.0000000 1
  35.0000000  1.798214e-11  1.616608e-10 -1.613995e-15  2.596429e-11  1.536786e-10    failed    failed    1.1999997    1.2002175    0.    0.  8.982145e-11    failed    1.2000000  1.227664e-15    0.  2.811785e-16    1.2000000  1.227664e-15    1.2000000  9.009854e-08    0.  1.049774e-08    1.2000000  1.225883e-07    0.  2.945103e-08   25.0000000 1
  36.0000000  2.317151e-11  2.602586e-10 -1.623579e-15  3.634301e-11  2.470871e-10    failed    failed    1.1999997    1.2000012    0.    0.  1.417151e-10    failed    1.2000000  1.269118e-15    0.  2.815248e-16    1.2000000  1.269118e-15    1.2000000 -1.221529e-08    0. -1.622363e-08    1.2000000  4.626250e-08    0.  6.184295e-08   25.0000000 1
  37.0000000  2.317151e-11  2.602586e-10 -1.621374e-15  3.634301e-11  2.470871e-10    failed    failed    1.1999997    1.1999991    0.    0.  1.417151e-10    failed    1.2000000  1.269143e-15    0.  2.815867e-16    1.2000000  1.269143e-15    1.2000000  3.780264e-08    0.  4.534186e-08    1.2000000 -5.119638e-09    0. -6.069059e-09   25.0000000 1
  38.0000000  2.317151e-11  2.602586e-10 -1.617170e-15  3.634301e-11  2.470871e-10    failed    failed    1.1999997    1.2000006    0.    0.  1.417151e-10    failed    1.2000000  1.268606e-15    0.  2.812796e-16    1.2000000  1.268606e-15    1.2000000 -3.053947e-08    0. -4.207099e-08    1.2000000  3.397239e-09    0.  4.748211e-09   25.0000000 1
  39.0000000  2.317151e-11  2.602586e-10 -1.614691e-15  3.634301e-11  2.470871e-10    failed    failed    1.1999997    1.1999999    0.    0.  1.417151e-10    failed    1.2000000  1.270494e-15    0.  2.817934e-16    1.2000000  1.270494e-15    1.2000000 -1.675715e-08    0. -2.245382e-08    1.2000000 -1.052376e-08    0. -1.408345e-08   25.0000000 1
  40.0000000  2.317151e-11  2.602586e-10 -1.615486e-15  3.634301e-11  2.470871e-10    failed    failed    1.1999997    1.2000031    0.    0.  1.417151e-10    failed    1.2000000  1.271223e-15    0.  2.816786e-16    1.2000000  1.271223e-15    1.2000000 -2.319677e-08    0. -3.405083e-08    1.2000000  2.135322e-09    0. -6.873731e-10   25.0000000 1
  41.0000000  2.317151e-11  2.602586e-10 -1.616197e-15  3.634301e-11  2.470871e-10    failed    failed    1.1999997    1.2000675    0.    0.  1.417151e-10    failed    1.2000000  1.264201e-15    0.  2.817811e-16    1.2000000  1.264201e-15    1.2000000  6.213754e-09    0. -2.881090e-08    1.2000000  4.322259e-08    0.  1.019920e-08   25.0000000 1
  42.0000000  2.317151e-11  2.602586e-10 -1.616856e-15  3.634301e-11  2.470871e-10    failed    failed    1.1999997    1.2002406    0.    0.  1.417151e-10    failed    1.2000000  1.228864e-15    0.  2.819202e-16    1.2000000  1.228864e-15    1.2000000  7.294050e-08    0. -2.467121e-08    1.2000000  1.224263e-07    0.  1.978101e-08   25.0000000 1
  43.0000000  3.000000e-11  3.900000e-10 -1.623401e-15  5.000000e-11  3.700000e-10    failed    failed    1.1999997    1.2000010    0.    0.  2.100000e-10    failed    1.2000000  1.273872e-15    0.  2.814282e-16    1.2000000  1.273872e-15    1.2000000  9.839887e-09    0.  1.248948e-08    1.2000000  1.921265e-08    0.  2.431777e-08   25.0000000 1
  44.0000000  3.000000e-11  3.900000e-10 -1.620176e-15  5.000000e-11  3.700000e-10    failed    failed    1.1999997    1.1999995    0.    0.  2.100000e-10    failed    1.2000000  1.274144e-15    0.  2.817414e-16    1.2000000  1.274144e-15    1.2000000  2.280824e-08    0.  2.247365e-08    1.2000000 -1.799631e-08    0. -1.752379e-08   25.0000000 1
  45.0000000  3.000000e-11  3.900000e-10 -1.619458e-15  5.000000e-11  3.700000e-10    failed    failed    1.1999997    1.1999998    0.    0.  2.100000e-10    failed    1.2000000  1.273723e-15    0.  2.816202e-16    1.2000000  1.273723e-15    1.2000000  1.168683e-08    0.  1.328952e-08    1.2000000 -1.755068e-08    0. -1.975524e-08   25.0000000 1
  46.0000000  3.000000e-11  3.900000e-10 -1.619712e-15  5.000000e-11  3.700000e-10    failed    failed    1.1999997    1.1999999    0.    0.  2.100000e-10    failed    1.2000000  1.274213e-15    0.  2.815313e-16    1.2000000  1.274213e-15    1.2000000 -1.329220e-08    0. -1.215568e-08    1.2000000 -1.419833e-08    0. -1.314876e-08   25.0000000 1
  47.0000000  3.000000e-11  3.900000e-10 -1.619426e-15  5.000000e-11  3.700000e-10    failed    failed    1.1999997    1.2000049    0.    0.  2.100000e-10    failed    1.2000000  1.274537e-15    0.  2.815318e-16    1.2000000  1.274537e-15    1.2000000 -1.878911e-08    0. -1.932205e-08    1.2000000  1.245938e-08    0.  8.045396e-09   25.0000000 1
  48.0000000  3.000000e-11  3.900000e-10 -1.615903e-15  5.000000e-11  3.700000e-10    failed    failed    1.1999997    1.2000823    0.    0.  2.100000e-10    failed    1.2000000  1.265824e-15    0.  2.816877e-16    1.2000000  1.265824e-15    1.2000000  1.077083e-08    0. -2.367240e-08    1.2000000  4.496337e-08    0. -5.155679e-10   25.0000000 1
  49.0000000  3.000000e-11  3.900000e-10 -1.616295e-15  5.000000e-11  3.700000e-10    failed    failed    1.1999997    1.2002733    0.    0.  2.100000e-10    failed    1.2000000  1.226167e-15    0.  2.817781e-16    1.2000000  1.226167e-15    1.2000000  8.056667e-08    0. -2.444561e-08    1.2000000  1.240297e-07    0. -1.857385e-09   25.0000000 1
