$DATA1 SOURCE='HSPICE' VERSION='O-2018.09-2 linux64' PARAM_COUNT=1
$OPTION MEASFORM=1
.TITLE '.title delay__ina__hl__out__lh__acq_1'
index cin__ina__hl_trig cin__ina__hl_targ cin__ina__hl_q tin__ina__hl_trig tin__ina__hl_targ tout__out__lh_trig tout__out__lh_targ cap_energy__out__lh_vp0 cap_energy__out__lh_vp1 cap_energy__out__lh_vn0 cap_energy__out__lh_vn1 delay__ina__hl__out__lh_trig delay__ina__hl__out__lh_targ energy1__ina__hl__out__lh__vdd_vdd_harness_v energy1__ina__hl__out__lh__vdd_vdd_harness_q energy1__ina__hl__out__lh__vss_vss_harness_v energy1__ina__hl__out__lh__vss_vss_harness_q energy__ina__hl__out__lh_vdd_harness_v energy__ina__hl__out__lh_vdd_harness_q leakage_power1__vdd_vdd_harness_v leakage_power1__vdd_vdd_harness_i leakage_power1__vss_vss_harness_v leakage_power1__vss_vss_harness_i leakage_power2__vdd_vdd_harness_v leakage_power2__vdd_vdd_harness_i leakage_power2__vss_vss_harness_v leakage_power2__vss_vss_harness_i temper alter#
   1.0000000  1.031250e-11  1.593750e-11  1.623958e-15  1.062500e-11  1.562500e-11    failed    failed    1.1999997    1.1999913    0.    0.  1.312500e-11    failed    1.2000000 -1.462386e-15    0. -3.351191e-16    1.2000000 -1.462386e-15    1.2000000 -5.765952e-08    0. -5.054434e-08    1.2000000  2.134553e-07    0.  2.045028e-07   25.0000000 1
   2.0000000  1.031250e-11  1.593750e-11  1.628780e-15  1.062500e-11  1.562500e-11    failed    failed    1.1999997    1.1999938    0.    0.  1.312500e-11    failed    1.2000000 -1.462564e-15    0. -3.352023e-16    1.2000000 -1.462564e-15    1.2000000 -1.325102e-08    0. -8.917024e-08    1.2000000  5.044311e-09    0.  6.252793e-08   25.0000000 1
   3.0000000  1.031250e-11  1.593750e-11  1.632989e-15  1.062500e-11  1.562500e-11    failed    failed    1.1999997    1.1999932    0.    0.  1.312500e-11    failed    1.2000000 -1.462500e-15    0. -3.352455e-16    1.2000000 -1.462500e-15    1.2000000  2.282085e-09    0.  1.165271e-07    1.2000000 -2.667568e-09    0. -7.621097e-09   25.0000000 1
   4.0000000  1.031250e-11  1.593750e-11  1.634538e-15  1.062500e-11  1.562500e-11    failed    failed    1.1999997    1.1999934    0.    0.  1.312500e-11    failed    1.2000000 -1.462376e-15    0. -3.352531e-16    1.2000000 -1.462376e-15    1.2000000 -6.169612e-09    0. -1.061291e-07    1.2000000 -9.171864e-10    0.  4.032144e-08   25.0000000 1
   5.0000000  1.031250e-11  1.593750e-11  1.635153e-15  1.062500e-11  1.562500e-11    failed    failed    1.1999997    1.1999930    0.    0.  1.312500e-11    failed    1.2000000 -1.462110e-15    0. -3.352595e-16    1.2000000 -1.462110e-15    1.2000000 -4.804441e-10    0.  4.852581e-08    1.2000000  1.097312e-09    0.  8.951869e-08   25.0000000 1
   6.0000000  1.031250e-11  1.593750e-11  1.635443e-15  1.062500e-11  1.562500e-11    failed    failed    1.1999997    1.1999805    0.    0.  1.312500e-11    failed    1.2000000 -1.460313e-15    0. -3.352633e-16    1.2000000 -1.460313e-15    1.2000000 -7.268892e-09    0.  4.966160e-08    1.2000000 -9.079870e-09    0.  8.998424e-08   25.0000000 1
   7.0000000  1.031250e-11  1.593750e-11  1.635599e-15  1.062500e-11  1.562500e-11    failed    failed    1.1999997    1.1999400    0.    0.  1.312500e-11    failed    1.2000000 -1.451716e-15    0. -3.352854e-16    1.2000000 -1.451716e-15    1.2000000 -2.022566e-08    0.  4.924362e-08    1.2000000 -2.265554e-08    0.  8.989030e-08   25.0000000 1
   8.0000000  1.066664e-11  2.266624e-11  1.658774e-15  1.133329e-11  2.199959e-11    failed    failed    1.1999997    1.1999944    0.    0.  1.666644e-11    failed    1.2000000 -1.462578e-15    0. -3.352196e-16    1.2000000 -1.462578e-15    1.2000000  5.744444e-08    0.  4.848586e-08    1.2000000 -7.145859e-08    0. -5.290604e-08   25.0000000 1
   9.0000000  1.066664e-11  2.266624e-11  1.662151e-15  1.133329e-11  2.199959e-11    failed    failed    1.1999997    1.1999931    0.    0.  1.666644e-11    failed    1.2000000 -1.462923e-15    0. -3.353945e-16    1.2000000 -1.462923e-15    1.2000000 -7.364101e-10    0.  1.320823e-08    1.2000000 -1.086204e-08    0. -6.245616e-08   25.0000000 1
  10.0000000  1.066664e-11  2.266624e-11  1.664533e-15  1.133329e-11  2.199959e-11    failed    failed    1.1999997    1.1999934    0.    0.  1.666644e-11    failed    1.2000000 -1.464753e-15    0. -3.360881e-16    1.2000000 -1.464753e-15    1.2000000 -3.995168e-09    0. -1.483586e-08    1.2000000  1.122765e-09    0.  3.511141e-08   25.0000000 1
  11.0000000  1.066664e-11  2.266624e-11  1.664948e-15  1.133329e-11  2.199959e-11    failed    failed    1.1999997    1.1999933    0.    0.  1.666644e-11    failed    1.2000000 -1.463039e-15    0. -3.354944e-16    1.2000000 -1.463039e-15    1.2000000 -4.182100e-09    0.  3.968692e-08    1.2000000 -1.108528e-10    0. -4.325190e-08   25.0000000 1
  12.0000000  1.066664e-11  2.266624e-11  1.665526e-15  1.133329e-11  2.199959e-11    failed    failed    1.1999997    1.1999930    0.    0.  1.666644e-11    failed    1.2000000 -1.462797e-15    0. -3.354929e-16    1.2000000 -1.462797e-15    1.2000000 -1.403453e-09    0. -2.126883e-08    1.2000000 -5.506066e-09    0.  6.350513e-08   25.0000000 1
  13.0000000  1.066664e-11  2.266624e-11  1.665805e-15  1.133329e-11  2.199959e-11    failed    failed    1.1999997    1.1999805    0.    0.  1.666644e-11    failed    1.2000000 -1.460974e-15    0. -3.354991e-16    1.2000000 -1.460974e-15    1.2000000 -6.933282e-09    0. -7.961004e-09    1.2000000 -1.179869e-08    0.  6.131305e-08   25.0000000 1
  14.0000000  1.066664e-11  2.266624e-11  1.665955e-15  1.133329e-11  2.199959e-11    failed    failed    1.1999997    1.1999398    0.    0.  1.666644e-11    failed    1.2000000 -1.452337e-15    0. -3.355217e-16    1.2000000 -1.452337e-15    1.2000000 -2.186298e-08    0. -7.761222e-09    1.2000000 -2.970998e-08    0.  6.122906e-08   25.0000000 1
  15.0000000  1.190977e-11  4.628558e-11  1.708795e-15  1.381953e-11  4.437581e-11    failed    failed    1.1999997    1.1999919    0.    0.  2.909767e-11    failed    1.2000000 -1.463236e-15    0. -3.355814e-16    1.2000000 -1.463236e-15    1.2000000  1.260587e-08    0.  2.930379e-08    1.2000000 -2.352642e-08    0. -3.818310e-08   25.0000000 1
  16.0000000  1.190977e-11  4.628558e-11  1.708353e-15  1.381953e-11  4.437581e-11    failed    failed    1.1999997    1.1999944    0.    0.  2.909767e-11    failed    1.2000000 -1.463231e-15    0. -3.355420e-16    1.2000000 -1.463231e-15    1.2000000 -3.165434e-09    0.  1.759848e-08    1.2000000 -2.732014e-09    0.  9.552211e-09   25.0000000 1
  17.0000000  1.190977e-11  4.628558e-11  1.710202e-15  1.381953e-11  4.437581e-11    failed    failed    1.1999997    1.1999929    0.    0.  2.909767e-11    failed    1.2000000 -1.463870e-15    0. -3.358304e-16    1.2000000 -1.463870e-15    1.2000000 -2.162598e-08    0.  7.427016e-09    1.2000000  9.097958e-09    0. -1.936625e-09   25.0000000 1
  18.0000000  1.190977e-11  4.628558e-11  1.711153e-15  1.381953e-11  4.437581e-11    failed    failed    1.1999997    1.1999936    0.    0.  2.909767e-11    failed    1.2000000 -1.464364e-15    0. -3.360277e-16    1.2000000 -1.464364e-15    1.2000000  1.836354e-08    0.  6.783429e-10    1.2000000 -3.057542e-08    0.  2.558647e-09   25.0000000 1
  19.0000000  1.190977e-11  4.628558e-11  1.711629e-15  1.381953e-11  4.437581e-11    failed    failed    1.1999997    1.1999930    0.    0.  2.909767e-11    failed    1.2000000 -1.464189e-15    0. -3.360482e-16    1.2000000 -1.464189e-15    1.2000000 -1.861910e-08    0.  1.645014e-09    1.2000000 -2.261796e-08    0.  1.780918e-09   25.0000000 1
  20.0000000  1.190977e-11  4.628558e-11  1.711876e-15  1.381953e-11  4.437581e-11    failed    failed    1.1999997    1.1999799    0.    0.  2.909767e-11    failed    1.2000000 -1.462322e-15    0. -3.360647e-16    1.2000000 -1.462322e-15    1.2000000 -2.726259e-08    0.  1.542649e-09    1.2000000 -2.694308e-08    0.  1.629708e-09   25.0000000 1
  21.0000000  1.190977e-11  4.628558e-11  1.712014e-15  1.381953e-11  4.437581e-11    failed    failed    1.1999997    1.1999384    0.    0.  2.909767e-11    failed    1.2000000 -1.453523e-15    0. -3.360923e-16    1.2000000 -1.453523e-15    1.2000000 -4.413558e-08    0.  1.500625e-09    1.2000000 -4.339077e-08    0.  1.600890e-09   25.0000000 1
  22.0000000  1.428369e-11  9.139011e-11  1.726037e-15  1.856738e-11  8.710642e-11    failed    failed    1.1999997    1.1999928    0.    0.  5.283690e-11    failed    1.2000000 -1.461878e-15    0. -3.349785e-16    1.2000000 -1.461878e-15    1.2000000  1.090612e-08    0.  2.654387e-08    1.2000000 -1.425777e-08    0. -2.116335e-08   25.0000000 1
  23.0000000  1.428369e-11  9.139011e-11  1.725477e-15  1.856738e-11  8.710642e-11    failed    failed    1.1999997    1.1999925    0.    0.  5.283690e-11    failed    1.2000000 -1.461979e-15    0. -3.350362e-16    1.2000000 -1.461979e-15    1.2000000  2.052250e-09    0.  1.669212e-08    1.2000000 -3.261807e-09    0. -1.810754e-09   25.0000000 1
  24.0000000  1.428369e-11  9.139011e-11  1.725495e-15  1.856738e-11  8.710642e-11    failed    failed    1.1999997    1.1999930    0.    0.  5.283690e-11    failed    1.2000000 -1.461970e-15    0. -3.350686e-16    1.2000000 -1.461970e-15    1.2000000 -6.711726e-09    0.  7.390792e-09    1.2000000  1.142325e-09    0. -3.114919e-09   25.0000000 1
  25.0000000  1.428369e-11  9.139011e-11  1.725938e-15  1.856738e-11  8.710642e-11    failed    failed    1.1999997    1.1999935    0.    0.  5.283690e-11    failed    1.2000000 -1.461853e-15    0. -3.350768e-16    1.2000000 -1.461853e-15    1.2000000  6.123098e-09    0. -4.215463e-09    1.2000000 -1.376703e-09    0.  8.830110e-10   25.0000000 1
  26.0000000  1.428369e-11  9.139011e-11  1.726277e-15  1.856738e-11  8.710642e-11    failed    failed    1.1999997    1.1999930    0.    0.  5.283690e-11    failed    1.2000000 -1.461610e-15    0. -3.350811e-16    1.2000000 -1.461610e-15    1.2000000  6.765439e-09    0. -3.468209e-09    1.2000000 -1.730684e-09    0.  9.569552e-10   25.0000000 1
  27.0000000  1.428369e-11  9.139011e-11  1.726482e-15  1.856738e-11  8.710642e-11    failed    failed    1.1999997    1.1999788    0.    0.  5.283690e-11    failed    1.2000000 -1.459594e-15    0. -3.350908e-16    1.2000000 -1.459594e-15    1.2000000  1.329241e-09    0. -3.145184e-09    1.2000000 -9.371614e-09    0.  1.018286e-09   25.0000000 1
  28.0000000  1.428369e-11  9.139011e-11  1.726605e-15  1.856738e-11  8.710642e-11    failed    failed    1.1999997    1.1999358    0.    0.  5.283690e-11    failed    1.2000000 -1.450431e-15    0. -3.351147e-16    1.2000000 -1.450431e-15    1.2000000 -1.445892e-08    0. -2.952940e-09    1.2000000 -2.769189e-08    0.  1.074780e-09   25.0000000 1
  29.0000000  1.798215e-11  1.616608e-10  1.729899e-15  2.596429e-11  1.536786e-10    failed    failed    1.1999997    1.1999922    0.    0.  8.982145e-11    failed    1.2000000 -1.464106e-15    0. -3.358984e-16    1.2000000 -1.464106e-15    1.2000000  6.891704e-08    0.  4.135297e-08    1.2000000  4.936322e-08    0.  3.043480e-08   25.0000000 1
  30.0000000  1.798215e-11  1.616608e-10  1.730211e-15  2.596429e-11  1.536786e-10    failed    failed    1.1999997    1.1999936    0.    0.  8.982145e-11    failed    1.2000000 -1.464337e-15    0. -3.359649e-16    1.2000000 -1.464337e-15    1.2000000  9.508992e-08    0.  5.353789e-08    1.2000000 -1.553494e-08    0. -5.550915e-09   25.0000000 1
  31.0000000  1.798215e-11  1.616608e-10  1.729963e-15  2.596429e-11  1.536786e-10    failed    failed    1.1999997    1.1999934    0.    0.  8.982145e-11    failed    1.2000000 -1.464251e-15    0. -3.359579e-16    1.2000000 -1.464251e-15    1.2000000  9.136698e-08    0.  4.940747e-08    1.2000000 -1.553214e-08    0. -5.250336e-09   25.0000000 1
  32.0000000  1.798215e-11  1.616608e-10  1.730071e-15  2.596429e-11  1.536786e-10    failed    failed    1.1999997    1.1999933    0.    0.  8.982145e-11    failed    1.2000000 -1.464106e-15    0. -3.359554e-16    1.2000000 -1.464106e-15    1.2000000  9.004004e-08    0.  4.810053e-08    1.2000000 -1.537398e-08    0. -5.077918e-09   25.0000000 1
  33.0000000  1.798214e-11  1.616608e-10  1.730267e-15  2.596429e-11  1.536786e-10    failed    failed    1.1999997    1.1999925    0.    0.  8.982145e-11    failed    1.2000000 -1.463830e-15    0. -3.359549e-16    1.2000000 -1.463830e-15    1.2000000  8.915024e-08    0.  4.759809e-08    1.2000000 -1.599747e-08    0. -5.026512e-09   25.0000000 1
  34.0000000  1.798215e-11  1.616608e-10  1.730419e-15  2.596429e-11  1.536786e-10    failed    failed    1.1999997    1.1999763    0.    0.  8.982145e-11    failed    1.2000000 -1.461532e-15    0. -3.359632e-16    1.2000000 -1.461532e-15    1.2000000  8.234854e-08    0.  4.738975e-08    1.2000000 -2.457547e-08    0. -4.982749e-09   25.0000000 1
  35.0000000  1.798215e-11  1.616608e-10  1.730522e-15  2.596429e-11  1.536786e-10    failed    failed    1.1999997    1.1999310    0.    0.  8.982145e-11    failed    1.2000000 -1.451788e-15    0. -3.359871e-16    1.2000000 -1.451788e-15    1.2000000  6.537192e-08    0.  4.730229e-08    1.2000000 -4.383085e-08    0. -4.938340e-09   25.0000000 1
  36.0000000  2.317151e-11  2.602586e-10  1.732929e-15  3.634301e-11  2.470871e-10    failed    failed    1.1999997    1.1999929    0.    0.  1.417151e-10    failed    1.2000000 -1.466456e-15    0. -3.366485e-16    1.2000000 -1.466456e-15    1.2000000 -6.972346e-08    0. -3.040138e-08    1.2000000  2.185098e-08    0.  1.295902e-08   25.0000000 1
  37.0000000  2.317151e-11  2.602586e-10  1.733206e-15  3.634301e-11  2.470871e-10    failed    failed    1.1999997    1.1999936    0.    0.  1.417151e-10    failed    1.2000000 -1.465907e-15    0. -3.365203e-16    1.2000000 -1.465907e-15    1.2000000  4.056868e-08    0.  2.019908e-08    1.2000000 -1.128458e-07    0. -4.645707e-08   25.0000000 1
  38.0000000  2.317151e-11  2.602586e-10  1.733030e-15  3.634301e-11  2.470871e-10    failed    failed    1.1999997    1.1999934    0.    0.  1.417151e-10    failed    1.2000000 -1.465692e-15    0. -3.364833e-16    1.2000000 -1.465692e-15    1.2000000  5.211140e-08    0.  2.482448e-08    1.2000000 -1.067989e-07    0. -4.309229e-08   25.0000000 1
  39.0000000  2.317151e-11  2.602586e-10  1.733006e-15  3.634301e-11  2.470871e-10    failed    failed    1.1999997    1.1999933    0.    0.  1.417151e-10    failed    1.2000000 -1.465508e-15    0. -3.364710e-16    1.2000000 -1.465508e-15    1.2000000  5.481582e-08    0.  2.582078e-08    1.2000000 -1.040137e-07    0. -4.161368e-08   25.0000000 1
  40.0000000  2.317151e-11  2.602586e-10  1.733093e-15  3.634301e-11  2.470871e-10    failed    failed    1.1999997    1.1999922    0.    0.  1.417151e-10    failed    1.2000000 -1.465191e-15    0. -3.364671e-16    1.2000000 -1.465191e-15    1.2000000  5.514150e-08    0.  2.611648e-08    1.2000000 -1.036984e-07    0. -4.104388e-08   25.0000000 1
  41.0000000  2.317151e-11  2.602586e-10  1.733195e-15  3.634301e-11  2.470871e-10    failed    failed    1.1999997    1.1999730    0.    0.  1.417151e-10    failed    1.2000000 -1.462520e-15    0. -3.364752e-16    1.2000000 -1.462520e-15    1.2000000  4.804288e-08    0.  2.631742e-08    1.2000000 -1.127228e-07    0. -4.070362e-08   25.0000000 1
  42.0000000  2.317151e-11  2.602586e-10  1.733275e-15  3.634301e-11  2.470871e-10    failed    failed    1.1999997    1.1999241    0.    0.  1.417151e-10    failed    1.2000000 -1.451906e-15    0. -3.365002e-16    1.2000000 -1.451906e-15    1.2000000  3.013748e-08    0.  2.644748e-08    1.2000000 -1.329358e-07    0. -4.049863e-08   25.0000000 1
  43.0000000  3.000000e-11  3.900000e-10  1.734228e-15  5.000000e-11  3.700000e-10    failed    failed    1.1999997    1.1999931    0.    0.  2.100000e-10    failed    1.2000000 -1.466623e-15    0. -3.368706e-16    1.2000000 -1.466623e-15    1.2000000 -3.888487e-08    0. -1.169488e-08    1.2000000  4.565432e-08    0.  1.877189e-08   25.0000000 1
  44.0000000  3.000000e-11  3.900000e-10  1.735162e-15  5.000000e-11  3.700000e-10    failed    failed    1.1999997    1.1999931    0.    0.  2.100000e-10    failed    1.2000000 -1.465510e-15    0. -3.366275e-16    1.2000000 -1.465510e-15    1.2000000 -7.716780e-08    0. -2.268647e-08    1.2000000 -1.085694e-08    0. -1.270960e-09   25.0000000 1
  45.0000000  3.000000e-11  3.900000e-10  1.734970e-15  5.000000e-11  3.700000e-10    failed    failed    1.1999997    1.1999932    0.    0.  2.100000e-10    failed    1.2000000 -1.465411e-15    0. -3.366217e-16    1.2000000 -1.465411e-15    1.2000000 -7.408639e-08    0. -2.154668e-08    1.2000000 -6.751182e-09    0.  6.533785e-11   25.0000000 1
  46.0000000  3.000000e-11  3.900000e-10  1.734883e-15  5.000000e-11  3.700000e-10    failed    failed    1.1999997    1.1999933    0.    0.  2.100000e-10    failed    1.2000000 -1.465262e-15    0. -3.366195e-16    1.2000000 -1.465262e-15    1.2000000 -7.291123e-08    0. -2.107186e-08    1.2000000 -5.150876e-09    0.  5.845699e-10   25.0000000 1
  47.0000000  3.000000e-11  3.900000e-10  1.734892e-15  5.000000e-11  3.700000e-10    failed    failed    1.1999997    1.1999918    0.    0.  2.100000e-10    failed    1.2000000 -1.464930e-15    0. -3.366193e-16    1.2000000 -1.464930e-15    1.2000000 -7.321431e-08    0. -2.087747e-08    1.2000000 -5.899612e-09    0.  7.930704e-10   25.0000000 1
  48.0000000  3.000000e-11  3.900000e-10  1.734943e-15  5.000000e-11  3.700000e-10    failed    failed    1.1999997    1.1999684    0.    0.  2.100000e-10    failed    1.2000000 -1.461740e-15    0. -3.366312e-16    1.2000000 -1.461740e-15    1.2000000 -8.245971e-08    0. -2.075194e-08    1.2000000 -1.798750e-08    0.  9.319589e-10   25.0000000 1
  49.0000000  3.000000e-11  3.900000e-10  1.734997e-15  5.000000e-11  3.700000e-10    failed    failed    1.1999997    1.1999141    0.    0.  2.100000e-10    failed    1.2000000 -1.449853e-15    0. -3.366599e-16    1.2000000 -1.449853e-15    1.2000000 -1.024331e-07    0. -2.066741e-08    1.2000000 -4.051564e-08    0.  1.018232e-09   25.0000000 1
