$DATA1 SOURCE='HSPICE' VERSION='O-2018.09-2 linux64' PARAM_COUNT=1
$OPTION MEASFORM=1
.TITLE '.title delay__inc__hl__out__lh__acq_1'
index cin__inc__hl_trig cin__inc__hl_targ cin__inc__hl_q tin__inc__hl_trig tin__inc__hl_targ tout__out__lh_trig tout__out__lh_targ cap_energy__out__lh_vp0 cap_energy__out__lh_vp1 cap_energy__out__lh_vn0 cap_energy__out__lh_vn1 delay__inc__hl__out__lh_trig delay__inc__hl__out__lh_targ energy1__inc__hl__out__lh__vdd_vdd_harness_v energy1__inc__hl__out__lh__vdd_vdd_harness_q energy1__inc__hl__out__lh__vss_vss_harness_v energy1__inc__hl__out__lh__vss_vss_harness_q energy__inc__hl__out__lh_vdd_harness_v energy__inc__hl__out__lh_vdd_harness_q leakage_power1__vdd_vdd_harness_v leakage_power1__vdd_vdd_harness_i leakage_power1__vss_vss_harness_v leakage_power1__vss_vss_harness_i leakage_power2__vdd_vdd_harness_v leakage_power2__vdd_vdd_harness_i leakage_power2__vss_vss_harness_v leakage_power2__vss_vss_harness_i temper alter#
   1.0000000  1.031250e-11  1.593750e-11  1.760869e-15  1.062500e-11  1.562500e-11    failed    failed    1.1999996    1.1999980    0.    0.  1.312500e-11    failed    1.2000000 -1.172663e-15    0. -8.350849e-16    1.2000000 -1.172663e-15    1.2000000 -2.084904e-07    0. -1.018563e-07    1.2000000  1.603765e-07    0.  7.876399e-08   25.0000000 1
   2.0000000  1.031250e-11  1.593750e-11  1.760901e-15  1.062500e-11  1.562500e-11    failed    failed    1.1999996    1.2000003    0.    0.  1.312500e-11    failed    1.2000000 -1.172705e-15    0. -8.350981e-16    1.2000000 -1.172705e-15    1.2000000 -8.384153e-08    0. -4.296790e-08    1.2000000  1.583718e-08    0.  8.390360e-09   25.0000000 1
   3.0000000  1.031250e-11  1.593750e-11  1.760940e-15  1.062500e-11  1.562500e-11    failed    failed    1.1999996    1.1999998    0.    0.  1.312500e-11    failed    1.2000000 -1.172698e-15    0. -8.351362e-16    1.2000000 -1.172698e-15    1.2000000  1.018003e-08    0.  8.581853e-09    1.2000000  5.366579e-08    0.  4.407093e-08   25.0000000 1
   4.0000000  1.031250e-11  1.593750e-11  1.760970e-15  1.062500e-11  1.562500e-11    failed    failed    1.1999996    1.1999997    0.    0.  1.312500e-11    failed    1.2000000 -1.172702e-15    0. -8.351405e-16    1.2000000 -1.172702e-15    1.2000000  2.267507e-08    0.  1.657640e-08    1.2000000  5.334701e-08    0.  3.865781e-08   25.0000000 1
   5.0000000  1.031250e-11  1.593750e-11  1.760984e-15  1.062500e-11  1.562500e-11    failed    failed    1.1999996    1.1999994    0.    0.  1.312500e-11    failed    1.2000000 -1.172685e-15    0. -8.351420e-16    1.2000000 -1.172685e-15    1.2000000  2.048021e-08    0.  1.757701e-08    1.2000000  4.760723e-08    0.  4.048670e-08   25.0000000 1
   6.0000000  1.031250e-11  1.593750e-11  1.760990e-15  1.062500e-11  1.562500e-11    failed    failed    1.1999996    1.1999974    0.    0.  1.312500e-11    failed    1.2000000 -1.172438e-15    0. -8.351441e-16    1.2000000 -1.172438e-15    1.2000000  1.977997e-08    0.  1.745978e-08    1.2000000  4.723764e-08    0.  4.055566e-08   25.0000000 1
   7.0000000  1.031250e-11  1.593750e-11  1.760994e-15  1.062500e-11  1.562500e-11    failed    failed    1.1999996    1.1999903    0.    0.  1.312500e-11    failed    1.2000000 -1.171004e-15    0. -8.351486e-16    1.2000000 -1.171004e-15    1.2000000  1.723528e-08    0.  1.746415e-08    1.2000000  4.446870e-08    0.  4.067178e-08   25.0000000 1
   8.0000000  1.066664e-11  2.266624e-11  1.793375e-15  1.133329e-11  2.199959e-11    failed    failed    1.1999996    1.1999989    0.    0.  1.666644e-11    failed    1.2000000 -1.172722e-15    0. -8.351045e-16    1.2000000 -1.172722e-15    1.2000000 -4.729359e-08    0. -1.535550e-08    1.2000000  1.513011e-07    0.  5.002220e-08   25.0000000 1
   9.0000000  1.066664e-11  2.266624e-11  1.793414e-15  1.133329e-11  2.199959e-11    failed    failed    1.1999996    1.1999998    0.    0.  1.666644e-11    failed    1.2000000 -1.172750e-15    0. -8.351332e-16    1.2000000 -1.172750e-15    1.2000000 -4.576589e-08    0. -5.598097e-09    1.2000000  3.803694e-08    0.  4.970773e-09   25.0000000 1
  10.0000000  1.066664e-11  2.266624e-11  1.793489e-15  1.133329e-11  2.199959e-11    failed    failed    1.1999996    1.1999996    0.    0.  1.666644e-11    failed    1.2000000 -1.172749e-15    0. -8.351500e-16    1.2000000 -1.172749e-15    1.2000000 -7.791709e-11    0.  1.664780e-10    1.2000000  4.760304e-08    0.  8.360891e-09   25.0000000 1
  11.0000000  1.066664e-11  2.266624e-11  1.793527e-15  1.133329e-11  2.199959e-11    failed    failed    1.1999996    1.1999995    0.    0.  1.666644e-11    failed    1.2000000 -1.172745e-15    0. -8.351501e-16    1.2000000 -1.172745e-15    1.2000000  3.515065e-08    0.  7.191851e-09    1.2000000 -3.569491e-08    0. -6.926864e-09   25.0000000 1
  12.0000000  1.066664e-11  2.266624e-11  1.793544e-15  1.133329e-11  2.199959e-11    failed    failed    1.1999996    1.1999994    0.    0.  1.666644e-11    failed    1.2000000 -1.172741e-15    0. -8.351497e-16    1.2000000 -1.172741e-15    1.2000000  3.260789e-08    0.  8.174136e-09    1.2000000 -3.251400e-08    0. -7.744706e-09   25.0000000 1
  13.0000000  1.066664e-11  2.266624e-11  1.793552e-15  1.133329e-11  2.199959e-11    failed    failed    1.1999996    1.1999972    0.    0.  1.666644e-11    failed    1.2000000 -1.172459e-15    0. -8.351515e-16    1.2000000 -1.172459e-15    1.2000000  3.616790e-08    0.  7.291839e-09    1.2000000 -3.744513e-08    0. -6.756350e-09   25.0000000 1
  14.0000000  1.066664e-11  2.266624e-11  1.793557e-15  1.133329e-11  2.199959e-11    failed    failed    1.1999996    1.1999902    0.    0.  1.666644e-11    failed    1.2000000 -1.171034e-15    0. -8.351566e-16    1.2000000 -1.171034e-15    1.2000000  3.039015e-08    0.  7.816170e-09    1.2000000 -3.726493e-08    0. -7.242908e-09   25.0000000 1
  15.0000000  1.190977e-11  4.628558e-11  1.835527e-15  1.381953e-11  4.437581e-11    failed    failed    1.1999996    1.1999992    0.    0.  2.909767e-11    failed    1.2000000 -1.173751e-15    0. -8.357744e-16    1.2000000 -1.173751e-15    1.2000000  9.015822e-09    0.  2.745153e-08    1.2000000  4.429993e-10    0.  1.859240e-09   25.0000000 1
  16.0000000  1.190977e-11  4.628558e-11  1.835523e-15  1.381953e-11  4.437581e-11    failed    failed    1.1999996    1.2000002    0.    0.  2.909767e-11    failed    1.2000000 -1.173758e-15    0. -8.357728e-16    1.2000000 -1.173758e-15    1.2000000  1.333423e-09    0. -1.777602e-09    1.2000000 -7.824893e-09    0.  9.740862e-09   25.0000000 1
  17.0000000  1.190977e-11  4.628558e-11  1.835554e-15  1.381953e-11  4.437581e-11    failed    failed    1.1999996    1.1999998    0.    0.  2.909767e-11    failed    1.2000000 -1.173754e-15    0. -8.357713e-16    1.2000000 -1.173754e-15    1.2000000 -1.387838e-08    0.  8.244019e-10    1.2000000 -8.047516e-09    0.  5.444689e-10   25.0000000 1
  18.0000000  1.190977e-11  4.628558e-11  1.835582e-15  1.381953e-11  4.437581e-11    failed    failed    1.1999996    1.1999994    0.    0.  2.909767e-11    failed    1.2000000 -1.173746e-15    0. -8.357701e-16    1.2000000 -1.173746e-15    1.2000000 -1.388980e-08    0. -2.824148e-11    1.2000000  2.121935e-08    0.  4.450363e-10   25.0000000 1
  19.0000000  1.190977e-11  4.628558e-11  1.835596e-15  1.381953e-11  4.437581e-11    failed    failed    1.1999996    1.1999995    0.    0.  2.909767e-11    failed    1.2000000 -1.173738e-15    0. -8.357710e-16    1.2000000 -1.173738e-15    1.2000000 -1.456393e-08    0. -1.365670e-10    1.2000000  2.199757e-08    0.  6.094156e-10   25.0000000 1
  20.0000000  1.190977e-11  4.628558e-11  1.835604e-15  1.381953e-11  4.437581e-11    failed    failed    1.1999996    1.1999971    0.    0.  2.909767e-11    failed    1.2000000 -1.173451e-15    0. -8.357715e-16    1.2000000 -1.173451e-15    1.2000000 -1.569541e-08    0. -2.901004e-10    1.2000000  2.105863e-08    0.  8.545985e-10   25.0000000 1
  21.0000000  1.190977e-11  4.628558e-11  1.835608e-15  1.381953e-11  4.437581e-11    failed    failed    1.1999996    1.1999900    0.    0.  2.909767e-11    failed    1.2000000 -1.171997e-15    0. -8.357752e-16    1.2000000 -1.171997e-15    1.2000000 -1.838728e-08    0. -3.833646e-10    1.2000000  1.806819e-08    0.  1.012849e-09   25.0000000 1
  22.0000000  1.428369e-11  9.139011e-11  1.848953e-15  1.856738e-11  8.710642e-11    failed    failed    1.1999996    1.1999991    0.    0.  5.283690e-11    failed    1.2000000 -1.172552e-15    0. -8.343869e-16    1.2000000 -1.172552e-15    1.2000000 -1.471299e-09    0. -3.490408e-08    1.2000000  1.027557e-09    0.  3.176901e-08   25.0000000 1
  23.0000000  1.428369e-11  9.139011e-11  1.848943e-15  1.856738e-11  8.710642e-11    failed    failed    1.1999996    1.1999998    0.    0.  5.283690e-11    failed    1.2000000 -1.172573e-15    0. -8.343978e-16    1.2000000 -1.172573e-15    1.2000000  6.098643e-10    0. -2.952553e-08    1.2000000 -7.678704e-10    0.  2.435958e-08   25.0000000 1
  24.0000000  1.428369e-11  9.139011e-11  1.848945e-15  1.856738e-11  8.710642e-11    failed    failed    1.1999996    1.1999997    0.    0.  5.283690e-11    failed    1.2000000 -1.172588e-15    0. -8.344069e-16    1.2000000 -1.172588e-15    1.2000000  5.836633e-09    0. -2.470415e-08    1.2000000 -4.572319e-09    0.  1.858015e-08   25.0000000 1
  25.0000000  1.428369e-11  9.139011e-11  1.848959e-15  1.856738e-11  8.710642e-11    failed    failed    1.1999996    1.1999996    0.    0.  5.283690e-11    failed    1.2000000 -1.172593e-15    0. -8.344099e-16    1.2000000 -1.172593e-15    1.2000000  7.348108e-09    0. -2.338999e-08    1.2000000 -5.541673e-09    0.  1.714250e-08   25.0000000 1
  26.0000000  1.428369e-11  9.139011e-11  1.848970e-15  1.856738e-11  8.710642e-11    failed    failed    1.1999996    1.1999994    0.    0.  5.283690e-11    failed    1.2000000 -1.172579e-15    0. -8.344111e-16    1.2000000 -1.172579e-15    1.2000000  7.832435e-09    0. -2.291407e-08    1.2000000 -5.938411e-09    0.  1.664048e-08   25.0000000 1
  27.0000000  1.428369e-11  9.139011e-11  1.848976e-15  1.856738e-11  8.710642e-11    failed    failed    1.1999996    1.1999971    0.    0.  5.283690e-11    failed    1.2000000 -1.172291e-15    0. -8.344129e-16    1.2000000 -1.172291e-15    1.2000000  7.086342e-09    0. -2.269530e-08    1.2000000 -7.377060e-09    0.  1.642510e-08   25.0000000 1
  28.0000000  1.428369e-11  9.139011e-11  1.848980e-15  1.856738e-11  8.710642e-11    failed    failed    1.1999996    1.1999895    0.    0.  5.283690e-11    failed    1.2000000 -1.170755e-15    0. -8.344179e-16    1.2000000 -1.170755e-15    1.2000000  4.505327e-09    0. -2.255252e-08    1.2000000 -1.058358e-08    0.  1.629532e-08   25.0000000 1
  29.0000000  1.798215e-11  1.616608e-10  1.852655e-15  2.596429e-11  1.536786e-10    failed    failed    1.1999996    1.1999974    0.    0.  8.982145e-11    failed    1.2000000 -1.174275e-15    0. -8.357147e-16    1.2000000 -1.174275e-15    1.2000000 -1.029862e-07    0. -8.595216e-08    1.2000000  2.722815e-08    0.  2.303846e-08   25.0000000 1
  30.0000000  1.798215e-11  1.616608e-10  1.852646e-15  2.596429e-11  1.536786e-10    failed    failed    1.1999996    1.1999986    0.    0.  8.982145e-11    failed    1.2000000 -1.174271e-15    0. -8.357145e-16    1.2000000 -1.174271e-15    1.2000000 -1.044206e-07    0. -8.630051e-08    1.2000000  3.254307e-08    0.  2.722408e-08   25.0000000 1
  31.0000000  1.798215e-11  1.616608e-10  1.852641e-15  2.596429e-11  1.536786e-10    failed    failed    1.1999996    1.1999993    0.    0.  8.982145e-11    failed    1.2000000 -1.174269e-15    0. -8.357147e-16    1.2000000 -1.174269e-15    1.2000000 -1.030680e-07    0. -8.481456e-08    1.2000000  3.388168e-08    0.  2.821628e-08   25.0000000 1
  32.0000000  1.798215e-11  1.616608e-10  1.852645e-15  2.596429e-11  1.536786e-10    failed    failed    1.1999996    1.1999994    0.    0.  8.982145e-11    failed    1.2000000 -1.174267e-15    0. -8.357147e-16    1.2000000 -1.174267e-15    1.2000000 -1.025677e-07    0. -8.424120e-08    1.2000000  3.411132e-08    0.  2.835224e-08   25.0000000 1
  33.0000000  1.798214e-11  1.616608e-10  1.852651e-15  2.596429e-11  1.536786e-10    failed    failed    1.1999996    1.1999995    0.    0.  8.982145e-11    failed    1.2000000 -1.174267e-15    0. -8.357147e-16    1.2000000 -1.174267e-15    1.2000000 -1.024130e-07    0. -8.400811e-08    1.2000000  3.404633e-08    0.  2.838495e-08   25.0000000 1
  34.0000000  1.798215e-11  1.616608e-10  1.852656e-15  2.596429e-11  1.536786e-10    failed    failed    1.1999996    1.1999965    0.    0.  8.982145e-11    failed    1.2000000 -1.173904e-15    0. -8.357165e-16    1.2000000 -1.173904e-15    1.2000000 -1.034646e-07    0. -8.388869e-08    1.2000000  3.259635e-08    0.  2.842060e-08   25.0000000 1
  35.0000000  1.798214e-11  1.616608e-10  1.852659e-15  2.596429e-11  1.536786e-10    failed    failed    1.1999996    1.1999886    0.    0.  8.982145e-11    failed    1.2000000 -1.172263e-15    0. -8.357211e-16    1.2000000 -1.172263e-15    1.2000000 -1.062906e-07    0. -8.381969e-08    1.2000000  2.934477e-08    0.  2.844646e-08   25.0000000 1
  36.0000000  2.317151e-11  2.602586e-10  1.852741e-15  3.634301e-11  2.470871e-10    failed    failed    1.1999996    1.2000009    0.    0.  1.417151e-10    failed    1.2000000 -1.176120e-15    0. -8.368397e-16    1.2000000 -1.176120e-15    1.2000000  6.691764e-08    0.  4.473846e-08    1.2000000 -6.883145e-08    0. -4.541035e-08   25.0000000 1
  37.0000000  2.317151e-11  2.602586e-10  1.853137e-15  3.634301e-11  2.470871e-10    failed    failed    1.1999996    1.2000002    0.    0.  1.417151e-10    failed    1.2000000 -1.174279e-15    0. -8.358847e-16    1.2000000 -1.174279e-15    1.2000000  8.433789e-08    0.  6.583814e-08    1.2000000  1.131535e-08    0.  9.077692e-09   25.0000000 1
  38.0000000  2.317151e-11  2.602586e-10  1.854187e-15  3.634301e-11  2.470871e-10    failed    failed    1.1999996    1.1999995    0.    0.  1.417151e-10    failed    1.2000000 -1.176272e-15    0. -8.368511e-16    1.2000000 -1.176272e-15    1.2000000 -8.242882e-08    0. -5.565490e-08    1.2000000 -1.118736e-08    0. -7.341072e-09   25.0000000 1
  39.0000000  2.317151e-11  2.602586e-10  1.854186e-15  3.634301e-11  2.470871e-10    failed    failed    1.1999996    1.1999997    0.    0.  1.417151e-10    failed    1.2000000 -1.176268e-15    0. -8.368481e-16    1.2000000 -1.176268e-15    1.2000000 -8.248597e-08    0. -5.571395e-08    1.2000000 -1.122103e-08    0. -7.366535e-09   25.0000000 1
  40.0000000  2.317151e-11  2.602586e-10  1.854188e-15  3.634301e-11  2.470871e-10    failed    failed    1.1999996    1.1999995    0.    0.  1.417151e-10    failed    1.2000000 -1.176253e-15    0. -8.368473e-16    1.2000000 -1.176253e-15    1.2000000 -8.257889e-08    0. -5.571916e-08    1.2000000 -1.137713e-08    0. -7.358613e-09   25.0000000 1
  41.0000000  2.317151e-11  2.602586e-10  1.854192e-15  3.634301e-11  2.470871e-10    failed    failed    1.1999996    1.1999961    0.    0.  1.417151e-10    failed    1.2000000 -1.175841e-15    0. -8.368488e-16    1.2000000 -1.175841e-15    1.2000000 -8.392284e-08    0. -5.571261e-08    1.2000000 -1.314436e-08    0. -7.344122e-09   25.0000000 1
  42.0000000  2.317151e-11  2.602586e-10  1.854194e-15  3.634301e-11  2.470871e-10    failed    failed    1.1999996    1.1999875    0.    0.  1.417151e-10    failed    1.2000000 -1.174053e-15    0. -8.368536e-16    1.2000000 -1.174053e-15    1.2000000 -8.704437e-08    0. -5.570404e-08    1.2000000 -1.668284e-08    0. -7.331661e-09   25.0000000 1
  43.0000000  3.000000e-11  3.900000e-10  1.853393e-15  5.000000e-11  3.700000e-10    failed    failed    1.1999996    1.1999988    0.    0.  2.100000e-10    failed    1.2000000 -1.176582e-15    0. -8.371783e-16    1.2000000 -1.176582e-15    1.2000000 -6.149779e-08    0. -3.246380e-08    1.2000000  1.148835e-09    0.  8.011322e-10   25.0000000 1
  44.0000000  3.000000e-11  3.900000e-10  1.853406e-15  5.000000e-11  3.700000e-10    failed    failed    1.1999996    1.1999992    0.    0.  2.100000e-10    failed    1.2000000 -1.176563e-15    0. -8.371762e-16    1.2000000 -1.176563e-15    1.2000000 -6.250161e-08    0. -3.364969e-08    1.2000000  2.302372e-09    0.  1.438761e-09   25.0000000 1
  45.0000000  3.000000e-11  3.900000e-10  1.853403e-15  5.000000e-11  3.700000e-10    failed    failed    1.1999996    1.1999995    0.    0.  2.100000e-10    failed    1.2000000 -1.176537e-15    0. -8.371672e-16    1.2000000 -1.176537e-15    1.2000000 -6.287880e-08    0. -3.410814e-08    1.2000000  2.470008e-09    0.  1.540740e-09   25.0000000 1
  46.0000000  3.000000e-11  3.900000e-10  1.853400e-15  5.000000e-11  3.700000e-10    failed    failed    1.1999996    1.1999996    0.    0.  2.100000e-10    failed    1.2000000 -1.176529e-15    0. -8.371635e-16    1.2000000 -1.176529e-15    1.2000000 -6.297339e-08    0. -3.421716e-08    1.2000000  2.468183e-09    0.  1.542331e-09   25.0000000 1
  47.0000000  3.000000e-11  3.900000e-10  1.853401e-15  5.000000e-11  3.700000e-10    failed    failed    1.1999996    1.1999993    0.    0.  2.100000e-10    failed    1.2000000 -1.176505e-15    0. -8.371622e-16    1.2000000 -1.176505e-15    1.2000000 -6.315036e-08    0. -3.425316e-08    1.2000000  2.220104e-09    0.  1.542443e-09   25.0000000 1
  48.0000000  3.000000e-11  3.900000e-10  1.853403e-15  5.000000e-11  3.700000e-10    failed    failed    1.1999996    1.1999951    0.    0.  2.100000e-10    failed    1.2000000 -1.175986e-15    0. -8.371640e-16    1.2000000 -1.175986e-15    1.2000000 -6.482780e-08    0. -3.426067e-08    1.2000000  6.364184e-11    0.  1.553261e-09   25.0000000 1
  49.0000000  3.000000e-11  3.900000e-10  1.853404e-15  5.000000e-11  3.700000e-10    failed    failed    1.1999996    1.1999856    0.    0.  2.100000e-10    failed    1.2000000 -1.173971e-15    0. -8.371692e-16    1.2000000 -1.173971e-15    1.2000000 -6.827775e-08    0. -3.426019e-08    1.2000000 -3.810013e-09    0.  1.562677e-09   25.0000000 1
