$DATA1 SOURCE='HSPICE' VERSION='O-2018.09-2 linux64' PARAM_COUNT=1
$OPTION MEASFORM=1
.TITLE '.title delay__inc__lh__out__hl__acq_1'
index cin__inc__lh_trig cin__inc__lh_targ cin__inc__lh_q tin__inc__lh_trig tin__inc__lh_targ tout__out__hl_trig tout__out__hl_targ cap_energy__out__hl_vp0 cap_energy__out__hl_vp1 cap_energy__out__hl_vn0 cap_energy__out__hl_vn1 delay__inc__lh__out__hl_trig delay__inc__lh__out__hl_targ energy1__inc__lh__out__hl__vdd_vdd_harness_v energy1__inc__lh__out__hl__vdd_vdd_harness_q energy1__inc__lh__out__hl__vss_vss_harness_v energy1__inc__lh__out__hl__vss_vss_harness_q energy__inc__lh__out__hl_vdd_harness_v energy__inc__lh__out__hl_vdd_harness_q leakage_power1__vdd_vdd_harness_v leakage_power1__vdd_vdd_harness_i leakage_power1__vss_vss_harness_v leakage_power1__vss_vss_harness_i leakage_power2__vdd_vdd_harness_v leakage_power2__vdd_vdd_harness_i leakage_power2__vss_vss_harness_v leakage_power2__vss_vss_harness_i temper alter#
   1.0000000  1.031250e-11  1.593750e-11 -1.798261e-15  1.062500e-11  1.562500e-11    failed    failed    1.1999996    1.2000027    0.    0.  1.312500e-11    failed    1.2000000  1.072046e-15    0.  8.360118e-16    1.2000000  1.072046e-15    1.2000000 -2.460563e-07    0. -6.880997e-08    1.2000000  3.440239e-09    0.  9.302497e-10   25.0000000 1
   2.0000000  1.031250e-11  1.593750e-11 -1.798418e-15  1.062500e-11  1.562500e-11    failed    failed    1.1999996    1.2000045    0.    0.  1.312500e-11    failed    1.2000000  1.072013e-15    0.  8.360324e-16    1.2000000  1.072013e-15    1.2000000 -1.255167e-07    0. -1.204589e-08    1.2000000  2.309586e-08    0.  2.327446e-09   25.0000000 1
   3.0000000  1.031250e-11  1.593750e-11 -1.798577e-15  1.062500e-11  1.562500e-11    failed    failed    1.1999996    1.2000043    0.    0.  1.312500e-11    failed    1.2000000  1.071985e-15    0.  8.360086e-16    1.2000000  1.071985e-15    1.2000000  8.688769e-08    0.  1.015808e-08    1.2000000  4.381679e-08    0.  5.161254e-09   25.0000000 1
   4.0000000  1.031250e-11  1.593750e-11 -1.798634e-15  1.062500e-11  1.562500e-11    failed    failed    1.1999996    1.2000042    0.    0.  1.312500e-11    failed    1.2000000  1.071855e-15    0.  8.360125e-16    1.2000000  1.071855e-15    1.2000000  9.617042e-08    0.  1.023914e-08    1.2000000 -7.767889e-08    0. -8.115434e-09   25.0000000 1
   5.0000000  1.031250e-11  1.593750e-11 -1.798656e-15  1.062500e-11  1.562500e-11    failed    failed    1.1999996    1.2000043    0.    0.  1.312500e-11    failed    1.2000000  1.071692e-15    0.  8.360133e-16    1.2000000  1.071692e-15    1.2000000  8.754643e-08    0.  1.228082e-08    1.2000000 -7.125732e-08    0. -9.898955e-09   25.0000000 1
   6.0000000  1.031250e-11  1.593750e-11 -1.798667e-15  1.062500e-11  1.562500e-11    failed    failed    1.1999996    1.2000067    0.    0.  1.312500e-11    failed    1.2000000  1.071180e-15    0.  8.360141e-16    1.2000000  1.071180e-15    1.2000000  8.546014e-08    0.  1.308904e-08    1.2000000 -6.772966e-08    0. -1.059472e-08   25.0000000 1
   7.0000000  1.031250e-11  1.593750e-11 -1.798673e-15  1.062500e-11  1.562500e-11    failed    failed    1.1999996    1.2000138    0.    0.  1.312500e-11    failed    1.2000000  1.069448e-15    0.  8.360153e-16    1.2000000  1.069448e-15    1.2000000  9.087260e-08    0.  1.304041e-08    1.2000000 -6.664685e-08    0. -1.050353e-08   25.0000000 1
   8.0000000  1.066664e-11  2.266624e-11 -1.816337e-15  1.133329e-11  2.199959e-11    failed    failed    1.1999996    1.2000012    0.    0.  1.666644e-11    failed    1.2000000  1.085539e-15    0.  8.370435e-16    1.2000000  1.085539e-15    1.2000000 -5.981370e-08    0. -1.139684e-08    1.2000000  2.906533e-08    0.  5.706724e-09   25.0000000 1
   9.0000000  1.066664e-11  2.266624e-11 -1.816357e-15  1.133329e-11  2.199959e-11    failed    failed    1.1999996    1.2000017    0.    0.  1.666644e-11    failed    1.2000000  1.085489e-15    0.  8.370286e-16    1.2000000  1.085489e-15    1.2000000 -3.273717e-08    0.  3.661091e-09    1.2000000  2.637473e-08    0. -2.626751e-09   25.0000000 1
  10.0000000  1.066664e-11  2.266624e-11 -1.814914e-15  1.133329e-11  2.199959e-11    failed    failed    1.1999996    1.2000013    0.    0.  1.666644e-11    failed    1.2000000  1.085450e-15    0.  8.371022e-16    1.2000000  1.085450e-15    1.2000000 -1.341841e-08    0.  2.155883e-08    1.2000000 -1.556177e-08    0.  2.482080e-08   25.0000000 1
  11.0000000  1.066664e-11  2.266624e-11 -1.814957e-15  1.133329e-11  2.199959e-11    failed    failed    1.1999996    1.2000017    0.    0.  1.666644e-11    failed    1.2000000  1.085399e-15    0.  8.370949e-16    1.2000000  1.085399e-15    1.2000000  1.715826e-08    0. -3.234534e-08    1.2000000  8.025412e-09    0. -1.474493e-08   25.0000000 1
  12.0000000  1.066664e-11  2.266624e-11 -1.814975e-15  1.133329e-11  2.199959e-11    failed    failed    1.1999996    1.2000016    0.    0.  1.666644e-11    failed    1.2000000  1.085326e-15    0.  8.370948e-16    1.2000000  1.085326e-15    1.2000000  1.844742e-08    0. -4.128888e-08    1.2000000 -3.909391e-10    0.  1.738170e-09   25.0000000 1
  13.0000000  1.066664e-11  2.266624e-11 -1.814984e-15  1.133329e-11  2.199959e-11    failed    failed    1.1999996    1.2000039    0.    0.  1.666644e-11    failed    1.2000000  1.084948e-15    0.  8.370963e-16    1.2000000  1.084948e-15    1.2000000  1.604242e-08    0. -4.066747e-08    1.2000000  8.950455e-10    0.  1.784181e-09   25.0000000 1
  14.0000000  1.066664e-11  2.266624e-11 -1.814989e-15  1.133329e-11  2.199959e-11    failed    failed    1.1999996    1.2000111    0.    0.  1.666644e-11    failed    1.2000000  1.083356e-15    0.  8.371000e-16    1.2000000  1.083356e-15    1.2000000  1.930827e-08    0. -4.079530e-08    1.2000000  3.900121e-09    0.  1.786569e-09   25.0000000 1
  15.0000000  1.190977e-11  4.628558e-11 -1.826759e-15  1.381953e-11  4.437581e-11    failed    failed    1.1999996    1.1999993    0.    0.  2.909767e-11    failed    1.2000000  1.106136e-15    0.  8.375581e-16    1.2000000  1.106136e-15    1.2000000  9.752948e-09    0.  1.518036e-08    1.2000000  5.989161e-09    0.  9.480620e-09   25.0000000 1
  16.0000000  1.190977e-11  4.628558e-11 -1.826625e-15  1.381953e-11  4.437581e-11    failed    failed    1.1999996    1.1999990    0.    0.  2.909767e-11    failed    1.2000000  1.105210e-15    0.  8.367730e-16    1.2000000  1.105210e-15    1.2000000 -2.753458e-09    0. -2.600610e-08    1.2000000  4.366319e-09    0.  4.171788e-08   25.0000000 1
  17.0000000  1.190977e-11  4.628558e-11 -1.826669e-15  1.381953e-11  4.437581e-11    failed    failed    1.1999996    1.1999997    0.    0.  2.909767e-11    failed    1.2000000  1.105155e-15    0.  8.367344e-16    1.2000000  1.105155e-15    1.2000000  5.062463e-09    0.  1.583218e-08    1.2000000  1.268091e-08    0.  3.975013e-08   25.0000000 1
  18.0000000  1.190977e-11  4.628558e-11 -1.826698e-15  1.381953e-11  4.437581e-11    failed    failed    1.1999996    1.2000003    0.    0.  2.909767e-11    failed    1.2000000  1.105127e-15    0.  8.367200e-16    1.2000000  1.105127e-15    1.2000000  1.315759e-08    0.  3.672026e-08    1.2000000 -1.649148e-08    0. -4.510410e-08   25.0000000 1
  19.0000000  1.190977e-11  4.628558e-11 -1.826713e-15  1.381953e-11  4.437581e-11    failed    failed    1.1999996    1.2000008    0.    0.  2.909767e-11    failed    1.2000000  1.105069e-15    0.  8.367194e-16    1.2000000  1.105069e-15    1.2000000  1.380022e-08    0.  3.698944e-08    1.2000000 -1.742977e-08    0. -4.606365e-08   25.0000000 1
  20.0000000  1.190977e-11  4.628558e-11 -1.826720e-15  1.381953e-11  4.437581e-11    failed    failed    1.1999996    1.2000027    0.    0.  2.909767e-11    failed    1.2000000  1.104770e-15    0.  8.367216e-16    1.2000000  1.104770e-15    1.2000000  1.491832e-08    0.  3.699143e-08    1.2000000 -1.657409e-08    0. -4.630793e-08   25.0000000 1
  21.0000000  1.190977e-11  4.628558e-11 -1.826725e-15  1.381953e-11  4.437581e-11    failed    failed    1.1999996    1.2000099    0.    0.  2.909767e-11    failed    1.2000000  1.103257e-15    0.  8.367264e-16    1.2000000  1.103257e-15    1.2000000  1.823993e-08    0.  3.689044e-08    1.2000000 -1.431009e-08    0. -4.619756e-08   25.0000000 1
  22.0000000  1.428369e-11  9.139011e-11 -1.830376e-15  1.856738e-11  8.710642e-11    failed    failed    1.1999996    1.2000007    0.    0.  5.283690e-11    failed    1.2000000  1.115396e-15    0.  8.357926e-16    1.2000000  1.115396e-15    1.2000000  2.606804e-08    0.  2.321304e-08    1.2000000 -2.142337e-08    0. -1.864255e-08   25.0000000 1
  23.0000000  1.428369e-11  9.139011e-11 -1.830384e-15  1.856738e-11  8.710642e-11    failed    failed    1.1999996    1.1999997    0.    0.  5.283690e-11    failed    1.2000000  1.115421e-15    0.  8.358184e-16    1.2000000  1.115421e-15    1.2000000  2.691350e-08    0.  1.924545e-08    1.2000000 -1.402966e-08    0. -9.710557e-09   25.0000000 1
  24.0000000  1.428369e-11  9.139011e-11 -1.830396e-15  1.856738e-11  8.710642e-11    failed    failed    1.1999996    1.1999997    0.    0.  5.283690e-11    failed    1.2000000  1.115436e-15    0.  8.358363e-16    1.2000000  1.115436e-15    1.2000000  1.956553e-08    0.  1.187074e-08    1.2000000 -1.705421e-08    0. -9.988091e-09   25.0000000 1
  25.0000000  1.428369e-11  9.139011e-11 -1.830414e-15  1.856738e-11  8.710642e-11    failed    failed    1.1999996    1.1999997    0.    0.  5.283690e-11    failed    1.2000000  1.115436e-15    0.  8.358416e-16    1.2000000  1.115436e-15    1.2000000  1.835138e-08    0.  1.042557e-08    1.2000000 -1.473544e-08    0. -8.034906e-09   25.0000000 1
  26.0000000  1.428369e-11  9.139011e-11 -1.830426e-15  1.856738e-11  8.710642e-11    failed    failed    1.1999996    1.1999998    0.    0.  5.283690e-11    failed    1.2000000  1.115428e-15    0.  8.358437e-16    1.2000000  1.115428e-15    1.2000000  1.792247e-08    0.  9.880852e-09    1.2000000 -1.386183e-08    0. -7.373171e-09   25.0000000 1
  27.0000000  1.428369e-11  9.139011e-11 -1.830433e-15  1.856738e-11  8.710642e-11    failed    failed    1.1999996    1.2000025    0.    0.  5.283690e-11    failed    1.2000000  1.115093e-15    0.  8.358462e-16    1.2000000  1.115093e-15    1.2000000  1.874213e-08    0.  9.633207e-09    1.2000000 -1.223376e-08    0. -7.093915e-09   25.0000000 1
  28.0000000  1.428369e-11  9.139011e-11 -1.830437e-15  1.856738e-11  8.710642e-11    failed    failed    1.1999996    1.2000101    0.    0.  5.283690e-11    failed    1.2000000  1.113526e-15    0.  8.358505e-16    1.2000000  1.113526e-15    1.2000000  2.130559e-08    0.  9.460545e-09    1.2000000 -8.811341e-09    0. -6.929423e-09   25.0000000 1
  29.0000000  1.798214e-11  1.616608e-10 -1.831281e-15  2.596429e-11  1.536786e-10    failed    failed    1.1999996    1.1999980    0.    0.  8.982145e-11    failed    1.2000000  1.122226e-15    0.  8.364652e-16    1.2000000  1.122226e-15    1.2000000  2.735702e-08    0.  3.254382e-08    1.2000000  4.897166e-08    0.  5.805950e-08   25.0000000 1
  30.0000000  1.798214e-11  1.616608e-10 -1.831283e-15  2.596429e-11  1.536786e-10    failed    failed    1.1999996    1.1999991    0.    0.  8.982145e-11    failed    1.2000000  1.122231e-15    0.  8.364679e-16    1.2000000  1.122231e-15    1.2000000  3.080148e-08    0.  3.565952e-08    1.2000000  4.794229e-08    0.  5.535075e-08   25.0000000 1
  31.0000000  1.798214e-11  1.616608e-10 -1.831287e-15  2.596429e-11  1.536786e-10    failed    failed    1.1999996    1.1999996    0.    0.  8.982145e-11    failed    1.2000000  1.122238e-15    0.  8.364738e-16    1.2000000  1.122238e-15    1.2000000  2.972111e-08    0.  3.422040e-08    1.2000000  4.696621e-08    0.  5.392006e-08   25.0000000 1
  32.0000000  1.798214e-11  1.616608e-10 -1.831295e-15  2.596429e-11  1.536786e-10    failed    failed    1.1999996    1.1999997    0.    0.  8.982145e-11    failed    1.2000000  1.122236e-15    0.  8.364759e-16    1.2000000  1.122236e-15    1.2000000  2.913392e-08    0.  3.354275e-08    1.2000000  4.663309e-08    0.  5.352645e-08   25.0000000 1
  33.0000000  1.798214e-11  1.616608e-10 -1.831303e-15  2.596429e-11  1.536786e-10    failed    failed    1.1999996    1.1999999    0.    0.  8.982145e-11    failed    1.2000000  1.122215e-15    0.  8.364768e-16    1.2000000  1.122215e-15    1.2000000  2.895663e-08    0.  3.327053e-08    1.2000000  4.662511e-08    0.  5.338284e-08   25.0000000 1
  34.0000000  1.798214e-11  1.616608e-10 -1.831308e-15  2.596429e-11  1.536786e-10    failed    failed    1.1999996    1.2000028    0.    0.  8.982145e-11    failed    1.2000000  1.121852e-15    0.  8.364788e-16    1.2000000  1.121852e-15    1.2000000  2.997357e-08    0.  3.313719e-08    1.2000000  4.808405e-08    0.  5.331234e-08   25.0000000 1
  35.0000000  1.798214e-11  1.616608e-10 -1.831312e-15  2.596429e-11  1.536786e-10    failed    failed    1.1999996    1.2000108    0.    0.  8.982145e-11    failed    1.2000000  1.120183e-15    0.  8.364836e-16    1.2000000  1.120183e-15    1.2000000  3.284098e-08    0.  3.306176e-08    1.2000000  5.139932e-08    0.  5.327137e-08   25.0000000 1
  36.0000000  2.317151e-11  2.602586e-10 -1.834222e-15  3.634301e-11  2.470871e-10    failed    failed    1.1999996    1.1999987    0.    0.  1.417151e-10    failed    1.2000000  1.128823e-15    0.  8.385866e-16    1.2000000  1.128823e-15    1.2000000 -5.893551e-08    0. -6.504239e-08    1.2000000  7.302288e-09    0.  8.406782e-09   25.0000000 1
  37.0000000  2.317151e-11  2.602586e-10 -1.834218e-15  3.634301e-11  2.470871e-10    failed    failed    1.1999996    1.1999991    0.    0.  1.417151e-10    failed    1.2000000  1.128794e-15    0.  8.385745e-16    1.2000000  1.128794e-15    1.2000000 -6.063167e-08    0. -6.674693e-08    1.2000000  7.912466e-09    0.  9.061537e-09   25.0000000 1
  38.0000000  2.317151e-11  2.602586e-10 -1.834211e-15  3.634301e-11  2.470871e-10    failed    failed    1.1999996    1.1999995    0.    0.  1.417151e-10    failed    1.2000000  1.128769e-15    0.  8.385668e-16    1.2000000  1.128769e-15    1.2000000 -6.103875e-08    0. -6.703182e-08    1.2000000  8.311117e-09    0.  9.478469e-09   25.0000000 1
  39.0000000  2.317151e-11  2.602586e-10 -1.834210e-15  3.634301e-11  2.470871e-10    failed    failed    1.1999996    1.1999996    0.    0.  1.417151e-10    failed    1.2000000  1.128757e-15    0.  8.385643e-16    1.2000000  1.128757e-15    1.2000000 -6.103523e-08    0. -6.700927e-08    1.2000000  8.468253e-09    0.  9.648768e-09   25.0000000 1
  40.0000000  2.317151e-11  2.602586e-10 -1.834213e-15  3.634301e-11  2.470871e-10    failed    failed    1.1999996    1.1999999    0.    0.  1.417151e-10    failed    1.2000000  1.128733e-15    0.  8.385635e-16    1.2000000  1.128733e-15    1.2000000 -6.094117e-08    0. -6.699423e-08    1.2000000  8.675123e-09    0.  9.712944e-09   25.0000000 1
  41.0000000  2.317151e-11  2.602586e-10 -1.834216e-15  3.634301e-11  2.470871e-10    failed    failed    1.1999996    1.2000033    0.    0.  1.417151e-10    failed    1.2000000  1.128308e-15    0.  8.385650e-16    1.2000000  1.128308e-15    1.2000000 -5.957397e-08    0. -6.699026e-08    1.2000000  1.045668e-08    0.  9.729383e-09   25.0000000 1
  42.0000000  2.317151e-11  2.602586e-10 -1.834219e-15  3.634301e-11  2.470871e-10    failed    failed    1.1999996    1.2000120    0.    0.  1.417151e-10    failed    1.2000000  1.126485e-15    0.  8.385697e-16    1.2000000  1.126485e-15    1.2000000 -5.639232e-08    0. -6.699213e-08    1.2000000  1.406840e-08    0.  9.733376e-09   25.0000000 1
  43.0000000  3.000000e-11  3.900000e-10 -1.832301e-15  5.000000e-11  3.700000e-10    failed    failed    1.1999996    1.1999988    0.    0.  2.100000e-10    failed    1.2000000  1.131586e-15    0.  8.385150e-16    1.2000000  1.131586e-15    1.2000000 -4.438337e-08    0. -5.239716e-08    1.2000000  4.902931e-09    0.  6.181090e-09   25.0000000 1
  44.0000000  3.000000e-11  3.900000e-10 -1.832333e-15  5.000000e-11  3.700000e-10    failed    failed    1.1999996    1.1999993    0.    0.  2.100000e-10    failed    1.2000000  1.131564e-15    0.  8.385145e-16    1.2000000  1.131564e-15    1.2000000 -4.539897e-08    0. -5.343273e-08    1.2000000  5.873847e-09    0.  7.315273e-09   25.0000000 1
  45.0000000  3.000000e-11  3.900000e-10 -1.832335e-15  5.000000e-11  3.700000e-10    failed    failed    1.1999996    1.1999995    0.    0.  2.100000e-10    failed    1.2000000  1.131540e-15    0.  8.385077e-16    1.2000000  1.131540e-15    1.2000000 -4.577001e-08    0. -5.386788e-08    1.2000000  6.187347e-09    0.  7.686045e-09   25.0000000 1
  46.0000000  3.000000e-11  3.900000e-10 -1.832334e-15  5.000000e-11  3.700000e-10    failed    failed    1.1999996    1.1999996    0.    0.  2.100000e-10    failed    1.2000000  1.131528e-15    0.  8.385047e-16    1.2000000  1.131528e-15    1.2000000 -4.583179e-08    0. -5.396231e-08    1.2000000  6.268612e-09    0.  7.785233e-09   25.0000000 1
  47.0000000  3.000000e-11  3.900000e-10 -1.832335e-15  5.000000e-11  3.700000e-10    failed    failed    1.1999996    1.1999999    0.    0.  2.100000e-10    failed    1.2000000  1.131499e-15    0.  8.385036e-16    1.2000000  1.131499e-15    1.2000000 -4.571552e-08    0. -5.399691e-08    1.2000000  6.520111e-09    0.  7.812605e-09   25.0000000 1
  48.0000000  3.000000e-11  3.900000e-10 -1.832337e-15  5.000000e-11  3.700000e-10    failed    failed    1.1999996    1.2000042    0.    0.  2.100000e-10    failed    1.2000000  1.130969e-15    0.  8.385055e-16    1.2000000  1.130969e-15    1.2000000 -4.403912e-08    0. -5.401924e-08    1.2000000  8.705845e-09    0.  7.815149e-09   25.0000000 1
  49.0000000  3.000000e-11  3.900000e-10 -1.832339e-15  5.000000e-11  3.700000e-10    failed    failed    1.1999996    1.2000138    0.    0.  2.100000e-10    failed    1.2000000  1.128915e-15    0.  8.385107e-16    1.2000000  1.128915e-15    1.2000000 -4.053630e-08    0. -5.403485e-08    1.2000000  1.265857e-08    0.  7.812793e-09   25.0000000 1
