$DATA1 SOURCE='HSPICE' VERSION='O-2018.09-2 linux64' PARAM_COUNT=0
.TITLE '$ ====== nor2 hspice testbench ======='
 trise            tfall            tavg             tdiff           
 delay            temper           alter#          
 -4.988e-08        4.988e-08          0.             9.976e-08      
  4.988e-08         25.0000        1               
