$DATA1 SOURCE='HSPICE' VERSION='O-2018.09-2 linux64' PARAM_COUNT=1
$OPTION MEASFORM=1
.TITLE '.title delay__ind__hl__out__lh__acq_1'
index cin__ind__hl_trig cin__ind__hl_targ cin__ind__hl_q tin__ind__hl_trig tin__ind__hl_targ tout__out__lh_trig tout__out__lh_targ cap_energy__out__lh_vp0 cap_energy__out__lh_vp1 cap_energy__out__lh_vn0 cap_energy__out__lh_vn1 delay__ind__hl__out__lh_trig delay__ind__hl__out__lh_targ energy1__ind__hl__out__lh__vdd_vdd_harness_v energy1__ind__hl__out__lh__vdd_vdd_harness_q energy1__ind__hl__out__lh__vss_vss_harness_v energy1__ind__hl__out__lh__vss_vss_harness_q energy__ind__hl__out__lh_vdd_harness_v energy__ind__hl__out__lh_vdd_harness_q leakage_power1__vdd_vdd_harness_v leakage_power1__vdd_vdd_harness_i leakage_power1__vss_vss_harness_v leakage_power1__vss_vss_harness_i leakage_power2__vdd_vdd_harness_v leakage_power2__vdd_vdd_harness_i leakage_power2__vss_vss_harness_v leakage_power2__vss_vss_harness_i temper alter#
   1.0000000  1.031250e-11  1.593750e-11  1.689430e-15  1.062500e-11  1.562500e-11    failed  1.977486e-11    1.1999996    1.1999969    0.    0.  1.312500e-11    failed    1.2000000 -1.154672e-15    0. -7.725614e-16    1.2000000 -1.154672e-15    1.2000000 -3.187198e-07    0. -2.412187e-08    1.2000000 -4.143850e-08    0. -2.996460e-09   25.0000000 1
   2.0000000  1.031250e-11  1.593750e-11  1.724164e-15  1.062500e-11  1.562500e-11    failed    failed    1.1999996    1.1999997    0.    0.  1.312500e-11    failed    1.2000000 -1.154658e-15    0. -7.725164e-16    1.2000000 -1.154658e-15    1.2000000  1.905226e-07    0. -4.568321e-09    1.2000000 -1.192644e-07    0.  3.119905e-09   25.0000000 1
   3.0000000  1.031250e-11  1.593750e-11  1.755482e-15  1.062500e-11  1.562500e-11    failed    failed    1.1999996    1.1999995    0.    0.  1.312500e-11    failed    1.2000000 -1.154781e-15    0. -7.725126e-16    1.2000000 -1.154781e-15    1.2000000  4.849217e-09    0.  1.104272e-10    1.2000000 -2.210358e-07    0.  2.837308e-09   25.0000000 1
   4.0000000  1.031250e-11  1.593750e-11  1.767360e-15  1.062500e-11  1.562500e-11    failed    failed    1.1999996    1.1999995    0.    0.  1.312500e-11    failed    1.2000000 -1.154848e-15    0. -7.724878e-16    1.2000000 -1.154848e-15    1.2000000  2.243028e-07    0. -1.005784e-09    1.2000000  2.616576e-08    0.  2.484586e-11   25.0000000 1
   5.0000000  1.031250e-11  1.593750e-11  1.772178e-15  1.062500e-11  1.562500e-11    failed    failed    1.1999996    1.1999971    0.    0.  1.312500e-11    failed    1.2000000 -1.154687e-15    0. -7.724797e-16    1.2000000 -1.154687e-15    1.2000000 -1.744155e-07    0.  1.032822e-09    1.2000000  1.238734e-07    0. -4.797672e-10   25.0000000 1
   6.0000000  1.031250e-11  1.593750e-11  1.774450e-15  1.062500e-11  1.562500e-11    failed    failed    1.1999996    1.1999455    0.    0.  1.312500e-11    failed    1.2000000 -1.148325e-15    0. -7.725058e-16    1.2000000 -1.148325e-15    1.2000000  2.960595e-08    0.  4.940177e-11    1.2000000  1.533689e-07    0. -3.613390e-10   25.0000000 1
   7.0000000  1.031250e-11  1.593750e-11  1.775663e-15  1.062500e-11  1.562500e-11    failed    failed    1.1999996    1.1997929    0.    0.  1.312500e-11    failed    1.2000000 -1.116910e-15    0. -7.725922e-16    1.2000000 -1.116910e-15    1.2000000 -4.530290e-08    0.  2.790535e-10    1.2000000  1.043863e-07    0. -1.436348e-10   25.0000000 1
   8.0000000  1.066664e-11  2.266624e-11  1.717840e-15  1.133329e-11  2.199959e-11    failed    failed    1.1999996    1.1999986    0.    0.  1.666644e-11    failed    1.2000000 -1.152841e-15    0. -7.748728e-16    1.2000000 -1.152841e-15    1.2000000  1.163928e-07    0.  5.100371e-09    1.2000000 -1.397495e-08    0. -4.297976e-10   25.0000000 1
   9.0000000  1.066664e-11  2.266624e-11  1.746723e-15  1.133329e-11  2.199959e-11    failed    failed    1.1999996    1.1999998    0.    0.  1.666644e-11    failed    1.2000000 -1.155073e-15    0. -7.756567e-16    1.2000000 -1.155073e-15    1.2000000 -5.618969e-08    0.  1.202683e-08    1.2000000  8.268311e-08    0. -1.740437e-08   25.0000000 1
  10.0000000  1.066664e-11  2.266624e-11  1.781858e-15  1.133329e-11  2.199959e-11    failed    failed    1.1999996    1.1999996    0.    0.  1.666644e-11    failed    1.2000000 -1.155134e-15    0. -7.730047e-16    1.2000000 -1.155134e-15    1.2000000 -5.541650e-08    0.  1.648259e-08    1.2000000  9.900382e-08    0. -2.916953e-08   25.0000000 1
  11.0000000  1.066664e-11  2.266624e-11  1.796195e-15  1.133329e-11  2.199959e-11    failed    failed    1.1999996    1.1999996    0.    0.  1.666644e-11    failed    1.2000000 -1.154727e-15    0. -7.723086e-16    1.2000000 -1.154727e-15    1.2000000 -1.206291e-07    0. -1.015777e-08    1.2000000  2.748844e-10    0.  1.854981e-10   25.0000000 1
  12.0000000  1.066664e-11  2.266624e-11  1.802302e-15  1.133329e-11  2.199959e-11    failed    failed    1.1999996    1.1999972    0.    0.  1.666644e-11    failed    1.2000000 -1.154604e-15    0. -7.723575e-16    1.2000000 -1.154604e-15    1.2000000 -1.190629e-07    0.  7.448481e-10    1.2000000 -8.920719e-09    0.  2.022364e-10   25.0000000 1
  13.0000000  1.066664e-11  2.266624e-11  1.805250e-15  1.133329e-11  2.199959e-11    failed    failed    1.1999996    1.1999455    0.    0.  1.666644e-11    failed    1.2000000 -1.148258e-15    0. -7.724100e-16    1.2000000 -1.148258e-15    1.2000000  5.742357e-08    0. -2.965532e-09    1.2000000  2.184589e-08    0. -1.771081e-09   25.0000000 1
  14.0000000  1.066664e-11  2.266624e-11  1.806842e-15  1.133329e-11  2.199959e-11    failed    failed    1.1999996    1.1997926    0.    0.  1.666644e-11    failed    1.2000000 -1.116802e-15    0. -7.725092e-16    1.2000000 -1.116802e-15    1.2000000  3.895005e-08    0. -6.422749e-09    1.2000000 -8.087542e-08    0. -2.568344e-10   25.0000000 1
  15.0000000  1.190977e-11  4.628558e-11  1.770760e-15  1.381953e-11  4.437581e-11    failed    failed    1.1999996    1.1999988    0.    0.  2.909767e-11    failed    1.2000000 -1.155241e-15    0. -7.732428e-16    1.2000000 -1.155241e-15    1.2000000  2.970377e-08    0.  1.440184e-08    1.2000000 -6.080080e-08    0. -2.883628e-08   25.0000000 1
  16.0000000  1.190977e-11  4.628558e-11  1.788015e-15  1.381953e-11  4.437581e-11    failed    failed    1.1999996    1.1999991    0.    0.  2.909767e-11    failed    1.2000000 -1.155175e-15    0. -7.730738e-16    1.2000000 -1.155175e-15    1.2000000  3.133133e-08    0.  6.818795e-09    1.2000000 -1.124584e-08    0. -2.210815e-09   25.0000000 1
  17.0000000  1.190977e-11  4.628558e-11  1.816547e-15  1.381953e-11  4.437581e-11    failed    failed    1.1999996    1.1999995    0.    0.  2.909767e-11    failed    1.2000000 -1.154890e-15    0. -7.725527e-16    1.2000000 -1.154890e-15    1.2000000  4.466813e-08    0. -1.619760e-08    1.2000000 -1.153220e-08    0.  4.309135e-09   25.0000000 1
  18.0000000  1.190977e-11  4.628558e-11  1.832872e-15  1.381953e-11  4.437581e-11    failed    failed    1.1999996    1.1999996    0.    0.  2.909767e-11    failed    1.2000000 -1.155096e-15    0. -7.728444e-16    1.2000000 -1.155096e-15    1.2000000  1.927779e-08    0. -1.430076e-09    1.2000000  1.392709e-08    0. -1.003363e-09   25.0000000 1
  19.0000000  1.190977e-11  4.628558e-11  1.840716e-15  1.381953e-11  4.437581e-11    failed    failed    1.1999996    1.1999968    0.    0.  2.909767e-11    failed    1.2000000 -1.154993e-15    0. -7.729742e-16    1.2000000 -1.154993e-15    1.2000000 -1.470629e-08    0. -9.705595e-10    1.2000000  2.644908e-08    0.  2.608694e-09   25.0000000 1
  20.0000000  1.190977e-11  4.628558e-11  1.844707e-15  1.381953e-11  4.437581e-11    failed    failed    1.1999996    1.1999427    0.    0.  2.909767e-11    failed    1.2000000 -1.148350e-15    0. -7.730666e-16    1.2000000 -1.148350e-15    1.2000000 -1.644470e-09    0.  3.796018e-09    1.2000000 -3.873020e-08    0. -1.361711e-09   25.0000000 1
  21.0000000  1.190977e-11  4.628558e-11  1.846917e-15  1.381953e-11  4.437581e-11    failed    failed    1.1999996    1.1997854    0.    0.  2.909767e-11    failed    1.2000000 -1.115918e-15    0. -7.731924e-16    1.2000000 -1.115918e-15    1.2000000 -5.842869e-08    0.  5.064297e-09    1.2000000 -1.003682e-07    0. -8.095970e-10   25.0000000 1
  22.0000000  1.428369e-11  9.139011e-11  1.815000e-15  1.856738e-11  8.710642e-11    failed    failed    1.1999996    1.1999977    0.    0.  5.283690e-11    failed    1.2000000 -1.155019e-15    0. -7.724470e-16    1.2000000 -1.155019e-15    1.2000000 -2.437873e-08    0. -5.323893e-08    1.2000000 -1.394309e-08    0. -3.022113e-08   25.0000000 1
  23.0000000  1.428369e-11  9.139011e-11  1.819745e-15  1.856738e-11  8.710642e-11    failed    failed    1.1999996    1.1999989    0.    0.  5.283690e-11    failed    1.2000000 -1.154679e-15    0. -7.719059e-16    1.2000000 -1.154679e-15    1.2000000  1.095484e-08    0.  2.162585e-08    1.2000000 -2.012361e-08    0. -3.850601e-08   25.0000000 1
  24.0000000  1.428369e-11  9.139011e-11  1.833308e-15  1.856738e-11  8.710642e-11    failed    failed    1.1999996    1.1999993    0.    0.  5.283690e-11    failed    1.2000000 -1.154698e-15    0. -7.717936e-16    1.2000000 -1.154698e-15    1.2000000 -4.440755e-09    0. -8.961433e-09    1.2000000 -1.548075e-08    0. -3.235354e-08   25.0000000 1
  25.0000000  1.428369e-11  9.139011e-11  1.845603e-15  1.856738e-11  8.710642e-11    failed    failed    1.1999996    1.1999997    0.    0.  5.283690e-11    failed    1.2000000 -1.154714e-15    0. -7.717443e-16    1.2000000 -1.154714e-15    1.2000000  8.535808e-09    0.  1.972898e-08    1.2000000  1.175372e-08    0.  2.692249e-08   25.0000000 1
  26.0000000  1.428369e-11  9.139011e-11  1.852728e-15  1.856738e-11  8.710642e-11    failed    failed    1.1999996    1.1999963    0.    0.  5.283690e-11    failed    1.2000000 -1.154486e-15    0. -7.717428e-16    1.2000000 -1.154486e-15    1.2000000  1.339680e-09    0.  6.577642e-09    1.2000000 -2.281195e-08    0. -4.622436e-08   25.0000000 1
  27.0000000  1.428369e-11  9.139011e-11  1.857321e-15  1.856738e-11  8.710642e-11    failed    failed    1.1999996    1.1999363    0.    0.  5.283690e-11    failed    1.2000000 -1.147059e-15    0. -7.718366e-16    1.2000000 -1.147059e-15    1.2000000 -3.808512e-08    0. -3.379680e-08    1.2000000 -3.045160e-08    0.  6.803625e-09   25.0000000 1
  28.0000000  1.428369e-11  9.139011e-11  1.859605e-15  1.856738e-11  8.710642e-11    failed    failed    1.1999996    1.1997720    0.    0.  5.283690e-11    failed    1.2000000 -1.112907e-15    0. -7.719248e-16    1.2000000 -1.112907e-15    1.2000000 -9.817929e-08    0. -3.462374e-08    1.2000000 -9.946995e-08    0.  4.687543e-09   25.0000000 1
  29.0000000  1.798214e-11  1.616608e-10  1.840818e-15  2.596429e-11  1.536786e-10    failed    failed    1.1999996    1.1999953    0.    0.  8.982145e-11    failed    1.2000000 -1.155783e-15    0. -7.733415e-16    1.2000000 -1.155783e-15    1.2000000  5.462370e-08    0.  1.070994e-07    1.2000000 -1.163848e-08    0. -2.226656e-08   25.0000000 1
  30.0000000  1.798215e-11  1.616608e-10  1.841710e-15  2.596429e-11  1.536786e-10    failed    failed    1.1999996    1.2000015    0.    0.  8.982145e-11    failed    1.2000000 -1.155887e-15    0. -7.735337e-16    1.2000000 -1.155887e-15    1.2000000 -3.865724e-08    0. -8.190393e-08    1.2000000  2.607162e-10    0.  1.050497e-09   25.0000000 1
  31.0000000  1.798214e-11  1.616608e-10  1.845989e-15  2.596429e-11  1.536786e-10    failed    failed    1.1999996    1.1999992    0.    0.  8.982145e-11    failed    1.2000000 -1.154856e-15    0. -7.722747e-16    1.2000000 -1.154856e-15    1.2000000 -2.908942e-09    0. -7.024426e-09    1.2000000 -1.609677e-08    0. -4.117093e-08   25.0000000 1
  32.0000000  1.798215e-11  1.616608e-10  1.852115e-15  2.596429e-11  1.536786e-10    failed    failed    1.1999996    1.1999992    0.    0.  8.982145e-11    failed    1.2000000 -1.155476e-15    0. -7.731861e-16    1.2000000 -1.155476e-15    1.2000000  2.108968e-08    0.  5.371101e-08    1.2000000 -1.695017e-08    0. -4.227081e-08   25.0000000 1
  33.0000000  1.798215e-11  1.616608e-10  1.857818e-15  2.596429e-11  1.536786e-10    failed    failed    1.1999996    1.1999951    0.    0.  8.982145e-11    failed    1.2000000 -1.155164e-15    0. -7.732057e-16    1.2000000 -1.155164e-15    1.2000000  3.272598e-08    0.  8.313412e-08    1.2000000 -2.284737e-09    0.  3.581719e-09   25.0000000 1
  34.0000000  1.798215e-11  1.616608e-10  1.861246e-15  2.596429e-11  1.536786e-10    failed    failed    1.1999996    1.1999244    0.    0.  8.982145e-11    failed    1.2000000 -1.146296e-15    0. -7.731397e-16    1.2000000 -1.146296e-15    1.2000000 -3.513683e-08    0. -1.414191e-08    1.2000000  2.293339e-09    0.  9.583493e-08   25.0000000 1
  35.0000000  1.798215e-11  1.616608e-10  1.863356e-15  2.596429e-11  1.536786e-10    failed    failed    1.1999996    1.1997483    0.    0.  8.982145e-11    failed    1.2000000 -1.109229e-15    0. -7.732066e-16    1.2000000 -1.109229e-15    1.2000000 -1.163674e-07    0. -5.453536e-08    1.2000000 -7.055048e-08    0.  9.131496e-08   25.0000000 1
  36.0000000  2.317151e-11  2.602586e-10  1.855642e-15  3.634301e-11  2.470871e-10    failed    failed    1.1999996    1.1999967    0.    0.  1.417151e-10    failed    1.2000000 -1.155251e-15    0. -7.728888e-16    1.2000000 -1.155251e-15    1.2000000  3.388198e-08    0.  6.902242e-08    1.2000000 -1.880150e-08    0. -3.759222e-08   25.0000000 1
  37.0000000  2.317151e-11  2.602586e-10  1.852547e-15  3.634301e-11  2.470871e-10    failed    failed    1.1999996    1.1999971    0.    0.  1.417151e-10    failed    1.2000000 -1.155908e-15    0. -7.736748e-16    1.2000000 -1.155908e-15    1.2000000  1.593843e-08    0.  2.815767e-08    1.2000000 -5.844772e-08    0. -1.007509e-07   25.0000000 1
  38.0000000  2.317151e-11  2.602586e-10  1.853940e-15  3.634301e-11  2.470871e-10    failed    failed    1.1999996    1.2000002    0.    0.  1.417151e-10    failed    1.2000000 -1.155523e-15    0. -7.733143e-16    1.2000000 -1.155523e-15    1.2000000 -2.613920e-08    0. -5.702205e-08    1.2000000  5.098843e-09    0.  1.171845e-08   25.0000000 1
  39.0000000  2.317151e-11  2.602586e-10  1.857138e-15  3.634301e-11  2.470871e-10    failed    failed    1.1999996    1.1999993    0.    0.  1.417151e-10    failed    1.2000000 -1.155701e-15    0. -7.736712e-16    1.2000000 -1.155701e-15    1.2000000  2.149078e-08    0.  4.634740e-08    1.2000000 -1.294354e-08    0. -2.713653e-08   25.0000000 1
  40.0000000  2.317151e-11  2.602586e-10  1.860701e-15  3.634301e-11  2.470871e-10    failed    failed    1.1999996    1.1999935    0.    0.  1.417151e-10    failed    1.2000000 -1.155369e-15    0. -7.739203e-16    1.2000000 -1.155369e-15    1.2000000 -2.225552e-08    0. -4.001413e-08    1.2000000 -1.366581e-08    0. -1.787442e-08   25.0000000 1
  41.0000000  2.317151e-11  2.602586e-10  1.863338e-15  3.634301e-11  2.470871e-10    failed    failed    1.1999996    1.1999108    0.    0.  1.417151e-10    failed    1.2000000 -1.145057e-15    0. -7.740654e-16    1.2000000 -1.145057e-15    1.2000000 -5.948423e-08    0. -4.835345e-08    1.2000000 -4.553543e-08    0.  2.942634e-09   25.0000000 1
  42.0000000  2.317151e-11  2.602586e-10  1.865127e-15  3.634301e-11  2.470871e-10    failed    failed    1.1999996    1.1997178    0.    0.  1.417151e-10    failed    1.2000000 -1.104080e-15    0. -7.742511e-16    1.2000000 -1.104080e-15    1.2000000 -1.272555e-07    0. -4.430923e-08    1.2000000 -1.191324e-07    0.  1.137899e-08   25.0000000 1
  43.0000000  3.000000e-11  3.900000e-10  1.857977e-15  5.000000e-11  3.700000e-10    failed    failed    1.1999996    1.2000012    0.    0.  2.100000e-10    failed    1.2000000 -1.156595e-15    0. -7.742593e-16    1.2000000 -1.156595e-15    1.2000000  2.165700e-08    0.  2.956438e-08    1.2000000  2.093755e-08    0.  2.885117e-08   25.0000000 1
  44.0000000  3.000000e-11  3.900000e-10  1.860951e-15  5.000000e-11  3.700000e-10    failed    failed    1.1999996    1.2000007    0.    0.  2.100000e-10    failed    1.2000000 -1.156086e-15    0. -7.739203e-16    1.2000000 -1.156086e-15    1.2000000 -2.439057e-09    0. -3.758083e-09    1.2000000  2.785616e-08    0.  4.691834e-08   25.0000000 1
  45.0000000  3.000000e-11  3.900000e-10  1.861624e-15  5.000000e-11  3.700000e-10    failed    failed    1.1999996    1.1999993    0.    0.  2.100000e-10    failed    1.2000000 -1.156147e-15    0. -7.742621e-16    1.2000000 -1.156147e-15    1.2000000  1.885847e-08    0.  2.595669e-08    1.2000000 -6.594716e-09    0. -8.482158e-09   25.0000000 1
  46.0000000  3.000000e-11  3.900000e-10  1.862965e-15  5.000000e-11  3.700000e-10    failed    failed    1.1999996    1.1999994    0.    0.  2.100000e-10    failed    1.2000000 -1.155942e-15    0. -7.741554e-16    1.2000000 -1.155942e-15    1.2000000  3.714843e-09    0.  5.338840e-09    1.2000000 -2.544145e-08    0. -3.227845e-08   25.0000000 1
  47.0000000  3.000000e-11  3.900000e-10  1.865062e-15  5.000000e-11  3.700000e-10    failed    failed    1.1999996    1.1999900    0.    0.  2.100000e-10    failed    1.2000000 -1.155118e-15    0. -7.740859e-16    1.2000000 -1.155118e-15    1.2000000 -2.658213e-08    0. -2.710836e-08    1.2000000 -3.007048e-10    0.  8.578011e-09   25.0000000 1
  48.0000000  3.000000e-11  3.900000e-10  1.866951e-15  5.000000e-11  3.700000e-10    failed    failed    1.1999996    1.1998842    0.    0.  2.100000e-10    failed    1.2000000 -1.141799e-15    0. -7.741189e-16    1.2000000 -1.141799e-15    1.2000000 -6.859286e-08    0. -2.752808e-08    1.2000000 -5.321857e-08    0.  7.947961e-09   25.0000000 1
  49.0000000  3.000000e-11  3.900000e-10  1.868389e-15  5.000000e-11  3.700000e-10    failed    failed    1.1999996    1.1996681    0.    0.  2.100000e-10    failed    1.2000000 -1.094859e-15    0. -7.742293e-16    1.2000000 -1.094859e-15    1.2000000 -1.473560e-07    0. -2.818399e-08    1.2000000 -1.420360e-07    0.  6.129763e-09   25.0000000 1
