$DATA1 SOURCE='HSPICE' VERSION='O-2018.09-2 linux64' PARAM_COUNT=1
.TITLE '$ ====== dff hspice testbench ======='
 d                tclktoq          thold            temper          
                  alter#          
  2.050e-09        2.124e-10        8.250e-11         25.0000       
                 1               
  2.045e-09        2.123e-10        7.750e-11         25.0000       
                 1               
  2.040e-09        2.123e-10        7.250e-11         25.0000       
                 1               
  2.035e-09        2.122e-10        6.750e-11         25.0000       
                 1               
  2.030e-09        2.122e-10        6.250e-11         25.0000       
                 1               
  2.025e-09        2.122e-10        5.750e-11         25.0000       
                 1               
  2.020e-09        2.121e-10        5.250e-11         25.0000       
                 1               
  2.015e-09        2.119e-10        4.750e-11         25.0000       
                 1               
  2.010e-09        2.118e-10        4.250e-11         25.0000       
                 1               
  2.005e-09        2.118e-10        3.750e-11         25.0000       
                 1               
  2.000e-09        2.117e-10        3.250e-11         25.0000       
                 1               
  1.995e-09        2.117e-10        2.750e-11         25.0000       
                 1               
  1.990e-09        2.116e-10        2.250e-11         25.0000       
                 1               
  1.985e-09        2.118e-10        1.750e-11         25.0000       
                 1               
  1.980e-09        2.119e-10        1.250e-11         25.0000       
                 1               
  1.975e-09        2.122e-10        7.500e-12         25.0000       
                 1               
  1.970e-09        2.125e-10        2.500e-12         25.0000       
                 1               
  1.965e-09        2.133e-10       -2.500e-12         25.0000       
                 1               
  1.960e-09        2.153e-10       -7.500e-12         25.0000       
                 1               
  1.955e-09        2.209e-10       -1.250e-11         25.0000       
                 1               
  1.950e-09        2.407e-10       -1.750e-11         25.0000       
                 1               
  1.945e-09          failed        -2.250e-11         25.0000       
                 1               
  1.940e-09          failed        -2.750e-11         25.0000       
                 1               
  1.935e-09          failed        -3.250e-11         25.0000       
                 1               
  1.930e-09          failed        -3.750e-11         25.0000       
                 1               
  1.925e-09          failed        -4.250e-11         25.0000       
                 1               
  1.920e-09          failed        -4.750e-11         25.0000       
                 1               
  1.915e-09          failed        -5.250e-11         25.0000       
                 1               
  1.910e-09          failed        -5.750e-11         25.0000       
                 1               
  1.905e-09          failed        -6.250e-11         25.0000       
                 1               
  1.900e-09          failed        -6.750e-11         25.0000       
                 1               
  1.895e-09          failed        -7.250e-11         25.0000       
                 1               
  1.890e-09          failed        -7.750e-11         25.0000       
                 1               
  1.885e-09          failed        -8.250e-11         25.0000       
                 1               
  1.880e-09          failed        -8.750e-11         25.0000       
                 1               
  1.875e-09          failed        -9.250e-11         25.0000       
                 1               
  1.870e-09          failed        -9.750e-11         25.0000       
                 1               
  1.865e-09          failed        -1.025e-10         25.0000       
                 1               
  1.860e-09          failed        -1.075e-10         25.0000       
                 1               
  1.855e-09          failed        -1.125e-10         25.0000       
                 1               
  1.850e-09          failed        -1.175e-10         25.0000       
                 1               
  1.845e-09          failed        -1.225e-10         25.0000       
                 1               
  1.840e-09          failed        -1.275e-10         25.0000       
                 1               
  1.835e-09          failed        -1.325e-10         25.0000       
                 1               
  1.830e-09          failed        -1.375e-10         25.0000       
                 1               
  1.825e-09          failed        -1.425e-10         25.0000       
                 1               
  1.820e-09          failed        -1.475e-10         25.0000       
                 1               
  1.815e-09          failed        -1.525e-10         25.0000       
                 1               
  1.810e-09          failed        -1.575e-10         25.0000       
                 1               
  1.805e-09          failed        -1.625e-10         25.0000       
                 1               
  1.800e-09          failed        -1.675e-10         25.0000       
                 1               
  1.795e-09          failed        -1.725e-10         25.0000       
                 1               
  1.790e-09          failed        -1.775e-10         25.0000       
                 1               
  1.785e-09          failed        -1.825e-10         25.0000       
                 1               
  1.780e-09          failed        -1.875e-10         25.0000       
                 1               
  1.775e-09          failed        -1.925e-10         25.0000       
                 1               
  1.770e-09          failed        -1.975e-10         25.0000       
                 1               
  1.765e-09          failed        -2.025e-10         25.0000       
                 1               
  1.760e-09          failed        -2.075e-10         25.0000       
                 1               
  1.755e-09          failed        -2.125e-10         25.0000       
                 1               
  1.750e-09          failed        -2.175e-10         25.0000       
                 1               
  1.745e-09          failed        -2.225e-10         25.0000       
                 1               
  1.740e-09          failed        -2.275e-10         25.0000       
                 1               
  1.735e-09          failed        -2.325e-10         25.0000       
                 1               
  1.730e-09          failed        -2.375e-10         25.0000       
                 1               
  1.725e-09          failed        -2.425e-10         25.0000       
                 1               
  1.720e-09          failed        -2.475e-10         25.0000       
                 1               
  1.715e-09          failed        -2.525e-10         25.0000       
                 1               
  1.710e-09          failed        -2.575e-10         25.0000       
                 1               
  1.705e-09          failed        -2.625e-10         25.0000       
                 1               
